

        *** GPGPU-Sim Simulator Version 3.2.2  [build 17315] ***


GPGPU-Sim PTX: simulation mode 0 (can change with PTX_SIM_MODE_FUNC environment variable:
               1=functional simulation only, 0=detailed performance simulator)
GPGPU-Sim: Configuration options:

-network_mode                           1 # Interconnection network mode
-inter_config_file   config_fermi_islip.icnt # Interconnection network config file
-gpgpu_ptx_use_cuobjdump                    1 # Use cuobjdump to extract ptx and sass from binaries
-gpgpu_experimental_lib_support                    0 # Try to extract code from cuda libraries [Broken because of unknown cudaGetExportTable]
-gpgpu_ptx_convert_to_ptxplus                    0 # Convert SASS (native ISA) to ptxplus and run ptxplus
-gpgpu_ptx_force_max_capability                   20 # Force maximum compute capability
-gpgpu_ptx_inst_debug_to_file                    0 # Dump executed instructions' debug information to file
-gpgpu_ptx_inst_debug_file       inst_debug.txt # Executed instructions' debug output file
-gpgpu_ptx_inst_debug_thread_uid                    1 # Thread UID for executed instructions' debug output
-gpgpu_simd_model                       1 # 1 = post-dominator
-gpgpu_shader_core_pipeline              1536:32 # shader core pipeline config, i.e., {<nthread>:<warpsize>}
-gpgpu_tex_cache:l1  4:128:24,L:R:m:N,F:128:4,128:2 # per-shader L1 texture cache  (READ-ONLY) config  {<nsets>:<bsize>:<assoc>,<rep>:<wr>:<alloc>:<wr_alloc>,<mshr>:<N>:<merge>,<mq>:<rf>}
-gpgpu_const_cache:l1 64:64:2,L:R:f:N,A:2:32,4 # per-shader L1 constant memory cache  (READ-ONLY) config  {<nsets>:<bsize>:<assoc>,<rep>:<wr>:<alloc>:<wr_alloc>,<mshr>:<N>:<merge>,<mq>} 
-gpgpu_cache:il1     4:128:4,L:R:f:N,A:2:32,4 # shader L1 instruction cache config  {<nsets>:<bsize>:<assoc>,<rep>:<wr>:<alloc>:<wr_alloc>,<mshr>:<N>:<merge>,<mq>} 
-gpgpu_cache:dl1     32:128:4,L:L:m:N,A:32:8,8 # per-shader L1 data cache config  {<nsets>:<bsize>:<assoc>,<rep>:<wr>:<alloc>:<wr_alloc>,<mshr>:<N>:<merge>,<mq> | none}
-gpgpu_cache:dl1PrefL1                 none # per-shader L1 data cache config  {<nsets>:<bsize>:<assoc>,<rep>:<wr>:<alloc>:<wr_alloc>,<mshr>:<N>:<merge>,<mq> | none}
-gpgpu_cache:dl1PreShared                 none # per-shader L1 data cache config  {<nsets>:<bsize>:<assoc>,<rep>:<wr>:<alloc>:<wr_alloc>,<mshr>:<N>:<merge>,<mq> | none}
-gmem_skip_L1D                          0 # global memory access skip L1D cache (implements -Xptxas -dlcm=cg, default=no skip)
-gpgpu_perfect_mem                      0 # enable perfect memory mode (no cache miss)
-n_regfile_gating_group                    4 # group of lanes that should be read/written together)
-gpgpu_clock_gated_reg_file                    0 # enable clock gated reg file for power calculations
-gpgpu_clock_gated_lanes                    0 # enable clock gated lanes for power calculations
-gpgpu_shader_registers                32768 # Number of registers per shader core. Limits number of concurrent CTAs. (default 8192)
-gpgpu_shader_cta                       8 # Maximum number of concurrent CTAs in shader (default 8)
-gpgpu_n_clusters                      15 # number of processing clusters
-gpgpu_n_cores_per_cluster                    1 # number of simd cores per cluster
-gpgpu_n_cluster_ejection_buffer_size                    8 # number of packets in ejection buffer
-gpgpu_n_ldst_response_buffer_size                    2 # number of response packets in ld/st unit ejection buffer
-gpgpu_shmem_size                   16384 # Size of shared memory per shader core (default 16kB)
-gpgpu_shmem_size                   49152 # Size of shared memory per shader core (default 16kB)
-gpgpu_shmem_size_PrefL1                16384 # Size of shared memory per shader core (default 16kB)
-gpgpu_shmem_size_PrefShared                16384 # Size of shared memory per shader core (default 16kB)
-gpgpu_shmem_num_banks                   32 # Number of banks in the shared memory in each shader core (default 16)
-gpgpu_shmem_limited_broadcast                    0 # Limit shared memory to do one broadcast per cycle (default on)
-gpgpu_shmem_warp_parts                    1 # Number of portions a warp is divided into for shared memory bank conflict check 
-gpgpu_warpdistro_shader                   -1 # Specify which shader core to collect the warp size distribution from
-gpgpu_warp_issue_shader                    0 # Specify which shader core to collect the warp issue distribution from
-gpgpu_local_mem_map                    1 # Mapping from local memory space address to simulated GPU physical address space (default = enabled)
-gpgpu_num_reg_banks                   16 # Number of register banks (default = 8)
-gpgpu_reg_bank_use_warp_id                    0 # Use warp ID in mapping registers to banks (default = off)
-gpgpu_operand_collector_num_units_sp                    6 # number of collector units (default = 4)
-gpgpu_operand_collector_num_units_sfu                    8 # number of collector units (default = 4)
-gpgpu_operand_collector_num_units_mem                    2 # number of collector units (default = 2)
-gpgpu_operand_collector_num_units_gen                    0 # number of collector units (default = 0)
-gpgpu_operand_collector_num_in_ports_sp                    2 # number of collector unit in ports (default = 1)
-gpgpu_operand_collector_num_in_ports_sfu                    1 # number of collector unit in ports (default = 1)
-gpgpu_operand_collector_num_in_ports_mem                    1 # number of collector unit in ports (default = 1)
-gpgpu_operand_collector_num_in_ports_gen                    0 # number of collector unit in ports (default = 0)
-gpgpu_operand_collector_num_out_ports_sp                    2 # number of collector unit in ports (default = 1)
-gpgpu_operand_collector_num_out_ports_sfu                    1 # number of collector unit in ports (default = 1)
-gpgpu_operand_collector_num_out_ports_mem                    1 # number of collector unit in ports (default = 1)
-gpgpu_operand_collector_num_out_ports_gen                    0 # number of collector unit in ports (default = 0)
-gpgpu_coalesce_arch                   13 # Coalescing arch (default = 13, anything else is off for now)
-gpgpu_num_sched_per_core                    2 # Number of warp schedulers per core
-gpgpu_max_insn_issue_per_warp                    1 # Max number of instructions that can be issued per warp in one cycle by scheduler
-gpgpu_simt_core_sim_order                    1 # Select the simulation order of cores in a cluster (0=Fix, 1=Round-Robin)
-gpgpu_pipeline_widths        2,1,1,2,1,1,2 # Pipeline widths ID_OC_SP,ID_OC_SFU,ID_OC_MEM,OC_EX_SP,OC_EX_SFU,OC_EX_MEM,EX_WB
-gpgpu_num_sp_units                     2 # Number of SP units (default=1)
-gpgpu_num_sfu_units                    1 # Number of SF units (default=1)
-gpgpu_num_mem_units                    1 # Number if ldst units (default=1) WARNING: not hooked up to anything
-gpgpu_scheduler                      gto # Scheduler configuration: < lrr | gto | two_level_active > If two_level_active:<num_active_warps>:<inner_prioritization>:<outer_prioritization>For complete list of prioritization values see shader.h enum scheduler_prioritization_typeDefault: gto
-gpgpu_dram_scheduler                    1 # 0 = fifo, 1 = FR-FCFS (defaul)
-gpgpu_dram_partition_queues              8:8:8:8 # i2$:$2d:d2$:$2i
-l2_ideal                               0 # Use a ideal L2 cache that always hit
-gpgpu_cache:dl2     64:128:8,L:B:m:W,A:32:4,4:0,32 # unified banked L2 data cache config  {<nsets>:<bsize>:<assoc>,<rep>:<wr>:<alloc>:<wr_alloc>,<mshr>:<N>:<merge>,<mq>}
-gpgpu_cache:dl2_texture_only                    0 # L2 cache used for texture only
-gpgpu_n_mem                            6 # number of memory modules (e.g. memory controllers) in gpu
-gpgpu_n_sub_partition_per_mchannel                    2 # number of memory subpartition in each memory module
-gpgpu_n_mem_per_ctrlr                    2 # number of memory chips per memory controller
-gpgpu_memlatency_stat                   14 # track and display latency statistics 0x2 enables MC, 0x4 enables queue logs
-gpgpu_frfcfs_dram_sched_queue_size                   16 # 0 = unlimited (default); # entries per chip
-gpgpu_dram_return_queue_size                  116 # 0 = unlimited (default); # entries per chip
-gpgpu_dram_buswidth                    4 # default = 4 bytes (8 bytes per cycle at DDR)
-gpgpu_dram_burst_length                    8 # Burst length of each DRAM request (default = 4 data bus cycle)
-dram_data_command_freq_ratio                    4 # Frequency ratio between DRAM data bus and command bus (default = 2 times, i.e. DDR)
-gpgpu_dram_timing_opt nbk=16:CCD=2:RRD=6:RCD=12:RAS=28:RP=12:RC=40: CL=12:WL=4:CDLR=5:WR=12:nbkgrp=4:CCDL=3:RTPL=2 # DRAM timing parameters = {nbk:tCCD:tRRD:tRCD:tRAS:tRP:tRC:CL:WL:tCDLR:tWR:nbkgrp:tCCDL:tRTPL}
-rop_latency                          120 # ROP queue latency (default 85)
-dram_latency                         100 # DRAM latency (default 30)
-gpgpu_mem_addr_mapping dramid@8;00000000.00000000.00000000.00000000.0000RRRR.RRRRRRRR.BBBCCCCB.CCSSSSSS # mapping memory address to dram model {dramid@<start bit>;<memory address map>}
-gpgpu_mem_addr_test                    0 # run sweep test to check address mapping for aliased address
-gpgpu_mem_address_mask                    1 # 0 = old addressing mask, 1 = new addressing mask, 2 = new add. mask + flipped bank sel and chip sel bits
-gpuwattch_xml_file  gpuwattch_gtx480.xml # GPUWattch XML file
-power_simulation_enabled                    1 # Turn on power simulator (1=On, 0=Off)
-power_per_cycle_dump                    0 # Dump detailed power output each cycle
-power_trace_enabled                    0 # produce a file for the power trace (1=On, 0=Off)
-power_trace_zlevel                     6 # Compression level of the power trace output log (0=no comp, 9=highest)
-steady_power_levels_enabled                    0 # produce a file for the steady power levels (1=On, 0=Off)
-steady_state_definition                  8:4 # allowed deviation:number of samples
-gpgpu_max_cycle                        0 # terminates gpu simulation early (0 = no limit)
-gpgpu_max_insn                         0 # terminates gpu simulation early (0 = no limit)
-gpgpu_max_cta                          0 # terminates gpu simulation early (0 = no limit)
-gpgpu_runtime_stat                   500 # display runtime statistics such as dram utilization {<freq>:<flag>}
-liveness_message_freq                    1 # Minimum number of seconds between simulation liveness messages (0 = always print)
-gpgpu_flush_l1_cache                    0 # Flush L1 cache at the end of each kernel call
-gpgpu_flush_l2_cache                    0 # Flush L2 cache at the end of each kernel call
-gpgpu_deadlock_detect                    1 # Stop the simulation at deadlock (1=on (default), 0=off)
-gpgpu_ptx_instruction_classification                    0 # if enabled will classify ptx instruction types per kernel (Max 255 kernels now)
-gpgpu_ptx_sim_mode                     0 # Select between Performance (default) or Functional simulation (1)
-gpgpu_clock_domains 700.0:700.0:700.0:924.0 # Clock Domain Frequencies in MhZ {<Core Clock>:<ICNT Clock>:<L2 Clock>:<DRAM Clock>}
-gpgpu_max_concurrent_kernel                    8 # maximum kernels that can run concurrently on GPU
-gpgpu_cflog_interval                    0 # Interval between each snapshot in control flow logger
-visualizer_enabled                     0 # Turn on visualizer output (1=On, 0=Off)
-visualizer_outputfile                 NULL # Specifies the output log file for visualizer
-visualizer_zlevel                      6 # Compression level of the visualizer output log (0=no comp, 9=highest)
-trace_enabled                          0 # Turn on traces
-trace_components                    none # comma seperated list of traces to enable. Complete list found in trace_streams.tup. Default none
-trace_sampling_core                    0 # The core which is printed using CORE_DPRINTF. Default 0
-trace_sampling_memory_partition                   -1 # The memory partition which is printed using MEMPART_DPRINTF. Default -1 (i.e. all)
-enable_ptx_file_line_stats                    1 # Turn on PTX source line statistic profiling. (1 = On)
-ptx_line_stats_filename gpgpu_inst_stats.txt # Output file for PTX source line statistics.
-save_embedded_ptx                      0 # saves ptx files embedded in binary as <n>.ptx
-keep                                   0 # keep intermediate files created by GPGPU-Sim when interfacing with external programs
-gpgpu_ptx_save_converted_ptxplus                    0 # Saved converted ptxplus to a file
-ptx_opcode_latency_int         4,13,4,5,145 # Opcode latencies for integers <ADD,MAX,MUL,MAD,DIV>Default 1,1,19,25,145
-ptx_opcode_latency_fp          4,13,4,5,39 # Opcode latencies for single precision floating points <ADD,MAX,MUL,MAD,DIV>Default 1,1,1,1,30
-ptx_opcode_latency_dp         8,19,8,8,330 # Opcode latencies for double precision floating points <ADD,MAX,MUL,MAD,DIV>Default 8,8,8,8,335
-ptx_opcode_initiation_int            1,2,2,1,8 # Opcode initiation intervals for integers <ADD,MAX,MUL,MAD,DIV>Default 1,1,4,4,32
-ptx_opcode_initiation_fp            1,2,1,1,4 # Opcode initiation intervals for single precision floating points <ADD,MAX,MUL,MAD,DIV>Default 1,1,1,1,5
-ptx_opcode_initiation_dp         8,16,8,8,130 # Opcode initiation intervals for double precision floating points <ADD,MAX,MUL,MAD,DIV>Default 8,8,8,8,130
DRAM Timing Options:
nbk                                    16 # number of banks
CCD                                     2 # column to column delay
RRD                                     6 # minimal delay between activation of rows in different banks
RCD                                    12 # row to column delay
RAS                                    28 # time needed to activate row
RP                                     12 # time needed to precharge (deactivate) row
RC                                     40 # row cycle time
CDLR                                    5 # switching from write to read (changes tWTR)
WR                                     12 # last data-in to row precharge
CL                                     12 # CAS latency
WL                                      4 # Write latency
nbkgrp                                  4 # number of bank groups
CCDL                                    3 # column to column delay between accesses to different bank groups
RTPL                                    2 # read to precharge delay between accesses to different bank groups
Total number of memory sub partition = 12
addr_dec_mask[CHIP]  = 0000000000000000 	high:64 low:0
addr_dec_mask[BK]    = 000000000000e100 	high:16 low:8
addr_dec_mask[ROW]   = 000000000fff0000 	high:28 low:16
addr_dec_mask[COL]   = 0000000000001eff 	high:13 low:0
addr_dec_mask[BURST] = 000000000000003f 	high:6 low:0
sub_partition_id_mask = 0000000000000100
GPGPU-Sim uArch: clock freqs: 700000000.000000:700000000.000000:700000000.000000:924000000.000000
GPGPU-Sim uArch: clock periods: 0.00000000142857142857:0.00000000142857142857:0.00000000142857142857:0.00000000108225108225
*** Initializing Memory Statistics ***
GPGPU-Sim uArch: interconnect node map (shaderID+MemID to icntID)
GPGPU-Sim uArch: Memory nodes ID start from index: 15
GPGPU-Sim uArch:    0   1   2   3   4
GPGPU-Sim uArch:    5   6   7   8   9
GPGPU-Sim uArch:   10  11  12  13  14
GPGPU-Sim uArch:   15  16  17  18  19
GPGPU-Sim uArch:   20  21  22  23  24
GPGPU-Sim uArch:   25  26
GPGPU-Sim uArch: interconnect node reverse map (icntID to shaderID+MemID)
GPGPU-Sim uArch: Memory nodes start from ID: 15
GPGPU-Sim uArch:    0   1   2   3   4
GPGPU-Sim uArch:    5   6   7   8   9
GPGPU-Sim uArch:   10  11  12  13  14
GPGPU-Sim uArch:   15  16  17  18  19
GPGPU-Sim uArch:   20  21  22  23  24
GPGPU-Sim uArch:   25  26
3c659dece536f5635abb6c91c7f6ea78  /home/jaineshdoshi/Documents/GPGPU-sim/gpgpu-sim/ispass2009-benchmarks/bin/release/MUM
GPGPU-Sim uArch: performance model initialization complete.
GPGPU-Sim PTX: __cudaRegisterFatBinary, fat_cubin_handle = 1, filename=mummergpu.cu
self exe links to: /home/jaineshdoshi/Documents/GPGPU-sim/gpgpu-sim/ispass2009-benchmarks/bin/release/MUM
Running md5sum using "md5sum /home/jaineshdoshi/Documents/GPGPU-sim/gpgpu-sim/ispass2009-benchmarks/bin/release/MUM "
Running cuobjdump using "$CUDA_INSTALL_PATH/bin/cuobjdump -ptx -elf -sass /home/jaineshdoshi/Documents/GPGPU-sim/gpgpu-sim/ispass2009-benchmarks/bin/release/MUM > _cuobjdump_complete_output_ysU1L5"
Parsing file _cuobjdump_complete_output_ysU1L5
######### cuobjdump parser ########
## Adding new section PTX
Adding ptx filename: _cuobjdump_1.ptx
Adding arch: sm_30
Adding identifier: mummergpu.cu
## Adding new section ELF
Adding arch: sm_30
Adding identifier: mummergpu.cu
## Adding new section ELF
Adding arch: sm_20
Adding identifier: mummergpu.cu
## Adding new section PTX
Adding ptx filename: _cuobjdump_2.ptx
Adding arch: sm_20
Adding identifier: mummergpu.cu
## Adding new section ELF
Adding arch: sm_10
Adding identifier: mummergpu.cu
## Adding new section PTX
Adding ptx filename: _cuobjdump_3.ptx
Adding arch: sm_10
Adding identifier: mummergpu.cu
Done parsing!!!
GPGPU-Sim PTX: __cudaRegisterFunction _Z17mummergpuRCKernelP10MatchCoordPcPKiS3_ii : hostFun 0x0x4096b0, fat_cubin_handle = 1
GPGPU-Sim PTX: allocating global region for "nodetex" from 0x100 to 0x104 (global memory space)
GPGPU-Sim PTX: allocating global region for "childrentex" from 0x104 to 0x108 (global memory space)
GPGPU-Sim PTX: allocating global region for "reftex" from 0x108 to 0x10c (global memory space)
GPGPU-Sim PTX: allocating stack frame region for .param "_Z10set_resultRK14TextureAddressP10MatchCoordiiii_param_0" from 0x0 to 0x8
GPGPU-Sim PTX: allocating stack frame region for .param "_Z10set_resultRK14TextureAddressP10MatchCoordiiii_param_1" from 0x8 to 0x10
GPGPU-Sim PTX: allocating stack frame region for .param "_Z10set_resultRK14TextureAddressP10MatchCoordiiii_param_2" from 0x10 to 0x14
GPGPU-Sim PTX: allocating stack frame region for .param "_Z10set_resultRK14TextureAddressP10MatchCoordiiii_param_3" from 0x14 to 0x18
GPGPU-Sim PTX: allocating stack frame region for .param "_Z10set_resultRK14TextureAddressP10MatchCoordiiii_param_4" from 0x18 to 0x1c
GPGPU-Sim PTX: allocating stack frame region for .param "_Z10set_resultRK14TextureAddressP10MatchCoordiiii_param_5" from 0x1c to 0x20
GPGPU-Sim PTX: instruction assembly for function '_Z10set_resultRK14TextureAddressP10MatchCoordiiii'...   done.
GPGPU-Sim PTX: finding reconvergence points for '_Z10set_resultRK14TextureAddressP10MatchCoordiiii'...
GPGPU-Sim PTX: Finding dominators for '_Z10set_resultRK14TextureAddressP10MatchCoordiiii'...
GPGPU-Sim PTX: Finding immediate dominators for '_Z10set_resultRK14TextureAddressP10MatchCoordiiii'...
GPGPU-Sim PTX: Finding postdominators for '_Z10set_resultRK14TextureAddressP10MatchCoordiiii'...
GPGPU-Sim PTX: Finding immediate postdominators for '_Z10set_resultRK14TextureAddressP10MatchCoordiiii'...
GPGPU-Sim PTX: pre-decoding instructions for '_Z10set_resultRK14TextureAddressP10MatchCoordiiii'...
GPGPU-Sim PTX: reconvergence points for _Z10set_resultRK14TextureAddressP10MatchCoordiiii...
GPGPU-Sim PTX:  1 (potential) branch divergence @  PC=0x018 (_1.ptx:37) @%p1 bra BB0_2;
GPGPU-Sim PTX:    immediate post dominator      @ 
GPGPU-Sim PTX: ... end of reconvergence points for _Z10set_resultRK14TextureAddressP10MatchCoordiiii
GPGPU-Sim PTX: ... done pre-decoding instructions for '_Z10set_resultRK14TextureAddressP10MatchCoordiiii'.
GPGPU-Sim PTX: allocating stack frame region for .param "func_retval0" from 0x0 to 0x4
GPGPU-Sim PTX: allocating stack frame region for .param "_Z6getRefi_param_0" from 0x4 to 0x8
GPGPU-Sim PTX: instruction assembly for function '_Z6getRefi'...   done.
GPGPU-Sim PTX: finding reconvergence points for '_Z6getRefi'...
GPGPU-Sim PTX: Finding dominators for '_Z6getRefi'...
GPGPU-Sim PTX: Finding immediate dominators for '_Z6getRefi'...
GPGPU-Sim PTX: Finding postdominators for '_Z6getRefi'...
GPGPU-Sim PTX: Finding immediate postdominators for '_Z6getRefi'...
GPGPU-Sim PTX: pre-decoding instructions for '_Z6getRefi'...
GPGPU-Sim PTX: reconvergence points for _Z6getRefi...
GPGPU-Sim PTX: ... end of reconvergence points for _Z6getRefi
GPGPU-Sim PTX: ... done pre-decoding instructions for '_Z6getRefi'.
GPGPU-Sim PTX: allocating stack frame region for .param "func_retval0" from 0x0 to 0x4
GPGPU-Sim PTX: allocating stack frame region for .param "_Z2rcc_param_0" from 0x4 to 0x8
GPGPU-Sim PTX: Warning %temp1 was declared previous at _1.ptx:109 skipping new declaration
GPGPU-Sim PTX: Warning %temp2 was declared previous at _1.ptx:110 skipping new declaration
GPGPU-Sim PTX: Warning %temp1 was declared previous at _1.ptx:109 skipping new declaration
GPGPU-Sim PTX: Warning %temp2 was declared previous at _1.ptx:110 skipping new declaration
GPGPU-Sim PTX: Warning %temp1 was declared previous at _1.ptx:109 skipping new declaration
GPGPU-Sim PTX: Warning %temp2 was declared previous at _1.ptx:110 skipping new declaration
GPGPU-Sim PTX: Warning %temp1 was declared previous at _1.ptx:109 skipping new declaration
GPGPU-Sim PTX: Warning %temp2 was declared previous at _1.ptx:110 skipping new declaration
GPGPU-Sim PTX: Warning %temp1 was declared previous at _1.ptx:109 skipping new declaration
GPGPU-Sim PTX: Warning %temp2 was declared previous at _1.ptx:110 skipping new declaration
GPGPU-Sim PTX: instruction assembly for function '_Z2rcc'...   done.
GPGPU-Sim PTX: finding reconvergence points for '_Z2rcc'...
GPGPU-Sim PTX: Finding dominators for '_Z2rcc'...
GPGPU-Sim PTX: Finding immediate dominators for '_Z2rcc'...
GPGPU-Sim PTX: Finding postdominators for '_Z2rcc'...
GPGPU-Sim PTX: Finding immediate postdominators for '_Z2rcc'...
GPGPU-Sim PTX: pre-decoding instructions for '_Z2rcc'...
GPGPU-Sim PTX: reconvergence points for _Z2rcc...
GPGPU-Sim PTX:  1 (potential) branch divergence @  PC=0x140 (_1.ptx:116) @%p1 bra BB2_4;
GPGPU-Sim PTX:    immediate post dominator      @ 
GPGPU-Sim PTX:  2 (potential) branch divergence @  PC=0x170 (_1.ptx:127) @%p5 bra BB2_10;
GPGPU-Sim PTX:    immediate post dominator      @ 
GPGPU-Sim PTX:  3 (potential) branch divergence @  PC=0x1a0 (_1.ptx:138) @%p6 bra BB2_3;
GPGPU-Sim PTX:    immediate post dominator      @ 
GPGPU-Sim PTX:  4 (potential) branch divergence @  PC=0x1a8 (_1.ptx:139) bra.uni BB2_11;
GPGPU-Sim PTX:    immediate post dominator      @  PC=0x2b8 (_1.ptx:205) ld.param.u8 %rc2, [_Z2rcc_param_0];
GPGPU-Sim PTX:  5 (potential) branch divergence @  PC=0x1f0 (_1.ptx:157) @%p2 bra BB2_9;
GPGPU-Sim PTX:    immediate post dominator      @ 
GPGPU-Sim PTX:  6 (potential) branch divergence @  PC=0x220 (_1.ptx:168) @%p3 bra BB2_8;
GPGPU-Sim PTX:    immediate post dominator      @ 
GPGPU-Sim PTX:  7 (potential) branch divergence @  PC=0x250 (_1.ptx:179) @%p4 bra BB2_11;
GPGPU-Sim PTX:    immediate post dominator      @ 
GPGPU-Sim PTX: ... end of reconvergence points for _Z2rcc
GPGPU-Sim PTX: ... done pre-decoding instructions for '_Z2rcc'.
GPGPU-Sim PTX: Warning %temp1 was declared previous at _1.ptx:326 skipping new declaration
GPGPU-Sim PTX: Warning %temp2 was declared previous at _1.ptx:327 skipping new declaration
GPGPU-Sim PTX: Warning %temp1 was declared previous at _1.ptx:326 skipping new declaration
GPGPU-Sim PTX: Warning %temp2 was declared previous at _1.ptx:327 skipping new declaration
GPGPU-Sim PTX: Warning %temp1 was declared previous at _1.ptx:326 skipping new declaration
GPGPU-Sim PTX: Warning %temp2 was declared previous at _1.ptx:327 skipping new declaration
GPGPU-Sim PTX: Warning %temp1 was declared previous at _1.ptx:326 skipping new declaration
GPGPU-Sim PTX: Warning %temp2 was declared previous at _1.ptx:327 skipping new declaration
GPGPU-Sim PTX: Warning %temp1 was declared previous at _1.ptx:326 skipping new declaration
GPGPU-Sim PTX: Warning %temp2 was declared previous at _1.ptx:327 skipping new declaration
GPGPU-Sim PTX: instruction assembly for function '_Z15mummergpuKernelP10MatchCoordPcPKiS3_ii'...   done.
GPGPU-Sim PTX: finding reconvergence points for '_Z15mummergpuKernelP10MatchCoordPcPKiS3_ii'...
GPGPU-Sim PTX: Finding dominators for '_Z15mummergpuKernelP10MatchCoordPcPKiS3_ii'...
GPGPU-Sim PTX: Finding immediate dominators for '_Z15mummergpuKernelP10MatchCoordPcPKiS3_ii'...
GPGPU-Sim PTX: Finding postdominators for '_Z15mummergpuKernelP10MatchCoordPcPKiS3_ii'...
GPGPU-Sim PTX: Finding immediate postdominators for '_Z15mummergpuKernelP10MatchCoordPcPKiS3_ii'...
GPGPU-Sim PTX: pre-decoding instructions for '_Z15mummergpuKernelP10MatchCoordPcPKiS3_ii'...
GPGPU-Sim PTX: reconvergence points for _Z15mummergpuKernelP10MatchCoordPcPKiS3_ii...
GPGPU-Sim PTX:  1 (potential) branch divergence @  PC=0x350 (_1.ptx:248) @%p1 bra BB3_33;
GPGPU-Sim PTX:    immediate post dominator      @  PC=0xa10 (_1.ptx:610) ret;
GPGPU-Sim PTX:  2 (potential) branch divergence @  PC=0x3d0 (_1.ptx:275) @%p2 bra BB3_33;
GPGPU-Sim PTX:    immediate post dominator      @  PC=0xa10 (_1.ptx:610) ret;
GPGPU-Sim PTX:  3 (potential) branch divergence @  PC=0x468 (_1.ptx:298) @%p5 bra BB3_4;
GPGPU-Sim PTX:    immediate post dominator      @  PC=0x498 (_1.ptx:308) mov.u16 %rs55, %rs57;
GPGPU-Sim PTX:  4 (potential) branch divergence @  PC=0x470 (_1.ptx:299) bra.uni BB3_5;
GPGPU-Sim PTX:    immediate post dominator      @  PC=0x498 (_1.ptx:308) mov.u16 %rs55, %rs57;
GPGPU-Sim PTX:  5 (potential) branch divergence @  PC=0x528 (_1.ptx:334) @%p6 bra BB3_28;
GPGPU-Sim PTX:    immediate post dominator      @  PC=0x980 (_1.ptx:582) mov.u16 %rs18, %rs53;
GPGPU-Sim PTX:  6 (potential) branch divergence @  PC=0x590 (_1.ptx:357) @%p7 bra BB3_15;
GPGPU-Sim PTX:    immediate post dominator      @  PC=0x658 (_1.ptx:412) setp.eq.s32 %p11, %r140, 0;
GPGPU-Sim PTX:  7 (potential) branch divergence @  PC=0x5b8 (_1.ptx:368) @%p8 bra BB3_14;
GPGPU-Sim PTX:    immediate post dominator      @  PC=0x658 (_1.ptx:412) setp.eq.s32 %p11, %r140, 0;
GPGPU-Sim PTX:  8 (potential) branch divergence @  PC=0x5e0 (_1.ptx:379) @%p9 bra BB3_13;
GPGPU-Sim PTX:    immediate post dominator      @  PC=0x658 (_1.ptx:412) setp.eq.s32 %p11, %r140, 0;
GPGPU-Sim PTX:  9 (potential) branch divergence @  PC=0x608 (_1.ptx:390) @%p10 bra BB3_12;
GPGPU-Sim PTX:    immediate post dominator      @  PC=0x658 (_1.ptx:412) setp.eq.s32 %p11, %r140, 0;
GPGPU-Sim PTX: 10 (potential) branch divergence @  PC=0x618 (_1.ptx:393) bra.uni BB3_16;
GPGPU-Sim PTX:    immediate post dominator      @  PC=0x658 (_1.ptx:412) setp.eq.s32 %p11, %r140, 0;
GPGPU-Sim PTX: 11 (potential) branch divergence @  PC=0x628 (_1.ptx:397) bra.uni BB3_16;
GPGPU-Sim PTX:    immediate post dominator      @  PC=0x658 (_1.ptx:412) setp.eq.s32 %p11, %r140, 0;
GPGPU-Sim PTX: 12 (potential) branch divergence @  PC=0x638 (_1.ptx:401) bra.uni BB3_16;
GPGPU-Sim PTX:    immediate post dominator      @  PC=0x658 (_1.ptx:412) setp.eq.s32 %p11, %r140, 0;
GPGPU-Sim PTX: 13 (potential) branch divergence @  PC=0x648 (_1.ptx:405) bra.uni BB3_16;
GPGPU-Sim PTX:    immediate post dominator      @  PC=0x658 (_1.ptx:412) setp.eq.s32 %p11, %r140, 0;
GPGPU-Sim PTX: 14 (potential) branch divergence @  PC=0x660 (_1.ptx:413) @%p11 bra BB3_25;
GPGPU-Sim PTX:    immediate post dominator      @  PC=0x980 (_1.ptx:582) mov.u16 %rs18, %rs53;
GPGPU-Sim PTX: 15 (potential) branch divergence @  PC=0x6b0 (_1.ptx:432) @%p12 bra BB3_19;
GPGPU-Sim PTX:    immediate post dominator      @  PC=0x728 (_1.ptx:458) mov.u32 %r135, %r136;
GPGPU-Sim PTX: 16 (potential) branch divergence @  PC=0x708 (_1.ptx:449) bra.uni BB3_20;
GPGPU-Sim PTX:    immediate post dominator      @  PC=0x728 (_1.ptx:458) mov.u32 %r135, %r136;
GPGPU-Sim PTX: 17 (potential) branch divergence @  PC=0x790 (_1.ptx:478) @!%p16 bra BB3_6;
GPGPU-Sim PTX:    immediate post dominator      @  PC=0x980 (_1.ptx:582) mov.u16 %rs18, %rs53;
GPGPU-Sim PTX: 18 (potential) branch divergence @  PC=0x800 (_1.ptx:499) @%p17 bra BB3_24;
GPGPU-Sim PTX:    immediate post dominator      @  PC=0x980 (_1.ptx:582) mov.u16 %rs18, %rs53;
GPGPU-Sim PTX: 19 (potential) branch divergence @  PC=0x828 (_1.ptx:505) bra.uni BB3_29;
GPGPU-Sim PTX:    immediate post dominator      @  PC=0x8f0 (_1.ptx:550) mov.u16 %rs53, %rs52;
GPGPU-Sim PTX: 20 (potential) branch divergence @  PC=0x840 (_1.ptx:512) bra.uni BB3_21;
GPGPU-Sim PTX:    immediate post dominator      @  PC=0x738 (_1.ptx:462) cvt.s64.s32 %rl25, %r143;
GPGPU-Sim PTX: 21 (potential) branch divergence @  PC=0x858 (_1.ptx:518) @%p18 bra BB3_27;
GPGPU-Sim PTX:    immediate post dominator      @  PC=0x8b8 (_1.ptx:539) add.s32 %r143, %r143, -1;
GPGPU-Sim PTX: 22 (potential) branch divergence @  PC=0x8d8 (_1.ptx:543) bra.uni BB3_32;
GPGPU-Sim PTX:    immediate post dominator      @  PC=0x980 (_1.ptx:582) mov.u16 %rs18, %rs53;
GPGPU-Sim PTX: 23 (potential) branch divergence @  PC=0x918 (_1.ptx:557) @%p19 bra BB3_31;
GPGPU-Sim PTX:    immediate post dominator      @  PC=0x970 (_1.ptx:578) add.s32 %r119, %r143, -1;
GPGPU-Sim PTX: 24 (potential) branch divergence @  PC=0xa08 (_1.ptx:606) @%p20 bra BB3_3;
GPGPU-Sim PTX:    immediate post dominator      @  PC=0xa10 (_1.ptx:610) ret;
GPGPU-Sim PTX: ... end of reconvergence points for _Z15mummergpuKernelP10MatchCoordPcPKiS3_ii
GPGPU-Sim PTX: ... done pre-decoding instructions for '_Z15mummergpuKernelP10MatchCoordPcPKiS3_ii'.
GPGPU-Sim PTX: Warning %temp1 was declared previous at _1.ptx:717 skipping new declaration
GPGPU-Sim PTX: Warning %temp2 was declared previous at _1.ptx:718 skipping new declaration
GPGPU-Sim PTX: Warning %temp1 was declared previous at _1.ptx:717 skipping new declaration
GPGPU-Sim PTX: Warning %temp2 was declared previous at _1.ptx:718 skipping new declaration
GPGPU-Sim PTX: Warning %temp1 was declared previous at _1.ptx:717 skipping new declaration
GPGPU-Sim PTX: Warning %temp2 was declared previous at _1.ptx:718 skipping new declaration
GPGPU-Sim PTX: Warning %temp1 was declared previous at _1.ptx:717 skipping new declaration
GPGPU-Sim PTX: Warning %temp2 was declared previous at _1.ptx:718 skipping new declaration
GPGPU-Sim PTX: Warning %temp1 was declared previous at _1.ptx:717 skipping new declaration
GPGPU-Sim PTX: Warning %temp2 was declared previous at _1.ptx:718 skipping new declaration
GPGPU-Sim PTX: Warning %temp1 was declared previous at _1.ptx:717 skipping new declaration
GPGPU-Sim PTX: Warning %temp2 was declared previous at _1.ptx:718 skipping new declaration
GPGPU-Sim PTX: Warning %temp1 was declared previous at _1.ptx:717 skipping new declaration
GPGPU-Sim PTX: Warning %temp2 was declared previous at _1.ptx:718 skipping new declaration
GPGPU-Sim PTX: Warning %temp1 was declared previous at _1.ptx:717 skipping new declaration
GPGPU-Sim PTX: Warning %temp2 was declared previous at _1.ptx:718 skipping new declaration
GPGPU-Sim PTX: Warning %temp1 was declared previous at _1.ptx:717 skipping new declaration
GPGPU-Sim PTX: Warning %temp2 was declared previous at _1.ptx:718 skipping new declaration
GPGPU-Sim PTX: Warning %temp1 was declared previous at _1.ptx:717 skipping new declaration
GPGPU-Sim PTX: Warning %temp2 was declared previous at _1.ptx:718 skipping new declaration
GPGPU-Sim PTX: Warning %temp1 was declared previous at _1.ptx:717 skipping new declaration
GPGPU-Sim PTX: Warning %temp2 was declared previous at _1.ptx:718 skipping new declaration
GPGPU-Sim PTX: Warning %temp1 was declared previous at _1.ptx:717 skipping new declaration
GPGPU-Sim PTX: Warning %temp2 was declared previous at _1.ptx:718 skipping new declaration
GPGPU-Sim PTX: Warning %temp1 was declared previous at _1.ptx:717 skipping new declaration
GPGPU-Sim PTX: Warning %temp2 was declared previous at _1.ptx:718 skipping new declaration
GPGPU-Sim PTX: Warning %temp1 was declared previous at _1.ptx:717 skipping new declaration
GPGPU-Sim PTX: Warning %temp2 was declared previous at _1.ptx:718 skipping new declaration
GPGPU-Sim PTX: Warning %temp1 was declared previous at _1.ptx:717 skipping new declaration
GPGPU-Sim PTX: Warning %temp2 was declared previous at _1.ptx:718 skipping new declaration
GPGPU-Sim PTX: Warning %temp1 was declared previous at _1.ptx:717 skipping new declaration
GPGPU-Sim PTX: Warning %temp2 was declared previous at _1.ptx:718 skipping new declaration
GPGPU-Sim PTX: Warning %temp1 was declared previous at _1.ptx:717 skipping new declaration
GPGPU-Sim PTX: Warning %temp2 was declared previous at _1.ptx:718 skipping new declaration
GPGPU-Sim PTX: Warning %temp1 was declared previous at _1.ptx:717 skipping new declaration
GPGPU-Sim PTX: Warning %temp2 was declared previous at _1.ptx:718 skipping new declaration
GPGPU-Sim PTX: Warning %temp1 was declared previous at _1.ptx:717 skipping new declaration
GPGPU-Sim PTX: Warning %temp2 was declared previous at _1.ptx:718 skipping new declaration
GPGPU-Sim PTX: Warning %temp1 was declared previous at _1.ptx:717 skipping new declaration
GPGPU-Sim PTX: Warning %temp2 was declared previous at _1.ptx:718 skipping new declaration
GPGPU-Sim PTX: instruction assembly for function '_Z17mummergpuRCKernelP10MatchCoordPcPKiS3_ii'...   done.
GPGPU-Sim PTX: finding reconvergence points for '_Z17mummergpuRCKernelP10MatchCoordPcPKiS3_ii'...
GPGPU-Sim PTX: Finding dominators for '_Z17mummergpuRCKernelP10MatchCoordPcPKiS3_ii'...
GPGPU-Sim PTX: Finding immediate dominators for '_Z17mummergpuRCKernelP10MatchCoordPcPKiS3_ii'...
GPGPU-Sim PTX: Finding postdominators for '_Z17mummergpuRCKernelP10MatchCoordPcPKiS3_ii'...
GPGPU-Sim PTX: Finding immediate postdominators for '_Z17mummergpuRCKernelP10MatchCoordPcPKiS3_ii'...
GPGPU-Sim PTX: pre-decoding instructions for '_Z17mummergpuRCKernelP10MatchCoordPcPKiS3_ii'...
GPGPU-Sim PTX: reconvergence points for _Z17mummergpuRCKernelP10MatchCoordPcPKiS3_ii...
GPGPU-Sim PTX:  1 (potential) branch divergence @  PC=0xa80 (_1.ptx:647) @%p1 bra BB4_57;
GPGPU-Sim PTX:    immediate post dominator      @  PC=0x1540 (_1.ptx:1249) ret;
GPGPU-Sim PTX:  2 (potential) branch divergence @  PC=0xaf8 (_1.ptx:671) @%p2 bra BB4_57;
GPGPU-Sim PTX:    immediate post dominator      @  PC=0x1540 (_1.ptx:1249) ret;
GPGPU-Sim PTX:  3 (potential) branch divergence @  PC=0xb90 (_1.ptx:694) @%p5 bra BB4_4;
GPGPU-Sim PTX:    immediate post dominator      @  PC=0xbc0 (_1.ptx:704) mov.u16 %rs75, %rs77;
GPGPU-Sim PTX:  4 (potential) branch divergence @  PC=0xb98 (_1.ptx:695) bra.uni BB4_5;
GPGPU-Sim PTX:    immediate post dominator      @  PC=0xbc0 (_1.ptx:704) mov.u16 %rs75, %rs77;
GPGPU-Sim PTX:  5 (potential) branch divergence @  PC=0xc30 (_1.ptx:725) @%p6 bra BB4_15;
GPGPU-Sim PTX:    immediate post dominator      @  PC=0xd58 (_1.ptx:799) mov.u16 %rs52, %rs74;
GPGPU-Sim PTX:  6 (potential) branch divergence @  PC=0xc58 (_1.ptx:736) @%p7 bra BB4_14;
GPGPU-Sim PTX:    immediate post dominator      @  PC=0xd58 (_1.ptx:799) mov.u16 %rs52, %rs74;
GPGPU-Sim PTX:  7 (potential) branch divergence @  PC=0xc80 (_1.ptx:747) @%p8 bra BB4_13;
GPGPU-Sim PTX:    immediate post dominator      @  PC=0xd58 (_1.ptx:799) mov.u16 %rs52, %rs74;
GPGPU-Sim PTX:  8 (potential) branch divergence @  PC=0xca8 (_1.ptx:758) @%p9 bra BB4_12;
GPGPU-Sim PTX:    immediate post dominator      @  PC=0xd58 (_1.ptx:799) mov.u16 %rs52, %rs74;
GPGPU-Sim PTX:  9 (potential) branch divergence @  PC=0xcd0 (_1.ptx:769) @%p10 bra BB4_11;
GPGPU-Sim PTX:    immediate post dominator      @  PC=0xd58 (_1.ptx:799) mov.u16 %rs52, %rs74;
GPGPU-Sim PTX: 10 (potential) branch divergence @  PC=0xce0 (_1.ptx:772) bra.uni BB4_16;
GPGPU-Sim PTX:    immediate post dominator      @  PC=0xd58 (_1.ptx:799) mov.u16 %rs52, %rs74;
GPGPU-Sim PTX: 11 (potential) branch divergence @  PC=0xcf8 (_1.ptx:777) bra.uni BB4_16;
GPGPU-Sim PTX:    immediate post dominator      @  PC=0xd58 (_1.ptx:799) mov.u16 %rs52, %rs74;
GPGPU-Sim PTX: 12 (potential) branch divergence @  PC=0xd10 (_1.ptx:782) bra.uni BB4_16;
GPGPU-Sim PTX:    immediate post dominator      @  PC=0xd58 (_1.ptx:799) mov.u16 %rs52, %rs74;
GPGPU-Sim PTX: 13 (potential) branch divergence @  PC=0xd28 (_1.ptx:787) bra.uni BB4_16;
GPGPU-Sim PTX:    immediate post dominator      @  PC=0xd58 (_1.ptx:799) mov.u16 %rs52, %rs74;
GPGPU-Sim PTX: 14 (potential) branch divergence @  PC=0xd40 (_1.ptx:792) bra.uni BB4_16;
GPGPU-Sim PTX:    immediate post dominator      @  PC=0xd58 (_1.ptx:799) mov.u16 %rs52, %rs74;
GPGPU-Sim PTX: 15 (potential) branch divergence @  PC=0xdb0 (_1.ptx:815) @%p11 bra BB4_52;
GPGPU-Sim PTX:    immediate post dominator      @  PC=0x14b0 (_1.ptx:1221) mov.u16 %rs18, %rs73;
GPGPU-Sim PTX: 16 (potential) branch divergence @  PC=0xe18 (_1.ptx:838) @%p12 bra BB4_25;
GPGPU-Sim PTX:    immediate post dominator      @  PC=0xee0 (_1.ptx:893) setp.eq.s32 %p16, %r156, 0;
GPGPU-Sim PTX: 17 (potential) branch divergence @  PC=0xe40 (_1.ptx:849) @%p13 bra BB4_24;
GPGPU-Sim PTX:    immediate post dominator      @  PC=0xee0 (_1.ptx:893) setp.eq.s32 %p16, %r156, 0;
GPGPU-Sim PTX: 18 (potential) branch divergence @  PC=0xe68 (_1.ptx:860) @%p14 bra BB4_23;
GPGPU-Sim PTX:    immediate post dominator      @  PC=0xee0 (_1.ptx:893) setp.eq.s32 %p16, %r156, 0;
GPGPU-Sim PTX: 19 (potential) branch divergence @  PC=0xe90 (_1.ptx:871) @%p15 bra BB4_22;
GPGPU-Sim PTX:    immediate post dominator      @  PC=0xee0 (_1.ptx:893) setp.eq.s32 %p16, %r156, 0;
GPGPU-Sim PTX: 20 (potential) branch divergence @  PC=0xea0 (_1.ptx:874) bra.uni BB4_26;
GPGPU-Sim PTX:    immediate post dominator      @  PC=0xee0 (_1.ptx:893) setp.eq.s32 %p16, %r156, 0;
GPGPU-Sim PTX: 21 (potential) branch divergence @  PC=0xeb0 (_1.ptx:878) bra.uni BB4_26;
GPGPU-Sim PTX:    immediate post dominator      @  PC=0xee0 (_1.ptx:893) setp.eq.s32 %p16, %r156, 0;
GPGPU-Sim PTX: 22 (potential) branch divergence @  PC=0xec0 (_1.ptx:882) bra.uni BB4_26;
GPGPU-Sim PTX:    immediate post dominator      @  PC=0xee0 (_1.ptx:893) setp.eq.s32 %p16, %r156, 0;
GPGPU-Sim PTX: 23 (potential) branch divergence @  PC=0xed0 (_1.ptx:886) bra.uni BB4_26;
GPGPU-Sim PTX:    immediate post dominator      @  PC=0xee0 (_1.ptx:893) setp.eq.s32 %p16, %r156, 0;
GPGPU-Sim PTX: 24 (potential) branch divergence @  PC=0xee8 (_1.ptx:894) @%p16 bra BB4_49;
GPGPU-Sim PTX:    immediate post dominator      @  PC=0x14b0 (_1.ptx:1221) mov.u16 %rs18, %rs73;
GPGPU-Sim PTX: 25 (potential) branch divergence @  PC=0xf38 (_1.ptx:913) @%p17 bra BB4_29;
GPGPU-Sim PTX:    immediate post dominator      @  PC=0xfb0 (_1.ptx:939) mov.u32 %r151, %r152;
GPGPU-Sim PTX: 26 (potential) branch divergence @  PC=0xf90 (_1.ptx:930) bra.uni BB4_30;
GPGPU-Sim PTX:    immediate post dominator      @  PC=0xfb0 (_1.ptx:939) mov.u32 %r151, %r152;
GPGPU-Sim PTX: 27 (potential) branch divergence @  PC=0x1018 (_1.ptx:959) @%p19 bra BB4_39;
GPGPU-Sim PTX:    immediate post dominator      @  PC=0x1110 (_1.ptx:1025) mov.u16 %rc21, %rc23;
GPGPU-Sim PTX: 28 (potential) branch divergence @  PC=0x1040 (_1.ptx:970) @%p20 bra BB4_38;
GPGPU-Sim PTX:    immediate post dominator      @  PC=0x1110 (_1.ptx:1025) mov.u16 %rc21, %rc23;
GPGPU-Sim PTX: 29 (potential) branch divergence @  PC=0x1068 (_1.ptx:981) @%p21 bra BB4_37;
GPGPU-Sim PTX:    immediate post dominator      @  PC=0x1110 (_1.ptx:1025) mov.u16 %rc21, %rc23;
GPGPU-Sim PTX: 30 (potential) branch divergence @  PC=0x1090 (_1.ptx:992) @%p22 bra BB4_36;
GPGPU-Sim PTX:    immediate post dominator      @  PC=0x1110 (_1.ptx:1025) mov.u16 %rc21, %rc23;
GPGPU-Sim PTX: 31 (potential) branch divergence @  PC=0x10b8 (_1.ptx:1002) @%p23 bra BB4_35;
GPGPU-Sim PTX:    immediate post dominator      @  PC=0x1110 (_1.ptx:1025) mov.u16 %rc21, %rc23;
GPGPU-Sim PTX: 32 (potential) branch divergence @  PC=0x10c0 (_1.ptx:1003) bra.uni BB4_40;
GPGPU-Sim PTX:    immediate post dominator      @  PC=0x1110 (_1.ptx:1025) mov.u16 %rc21, %rc23;
GPGPU-Sim PTX: 33 (potential) branch divergence @  PC=0x10d0 (_1.ptx:1007) bra.uni BB4_40;
GPGPU-Sim PTX:    immediate post dominator      @  PC=0x1110 (_1.ptx:1025) mov.u16 %rc21, %rc23;
GPGPU-Sim PTX: 34 (potential) branch divergence @  PC=0x10e0 (_1.ptx:1011) bra.uni BB4_40;
GPGPU-Sim PTX:    immediate post dominator      @  PC=0x1110 (_1.ptx:1025) mov.u16 %rc21, %rc23;
GPGPU-Sim PTX: 35 (potential) branch divergence @  PC=0x10f0 (_1.ptx:1015) bra.uni BB4_40;
GPGPU-Sim PTX:    immediate post dominator      @  PC=0x1110 (_1.ptx:1025) mov.u16 %rc21, %rc23;
GPGPU-Sim PTX: 36 (potential) branch divergence @  PC=0x1100 (_1.ptx:1019) bra.uni BB4_40;
GPGPU-Sim PTX:    immediate post dominator      @  PC=0x1110 (_1.ptx:1025) mov.u16 %rc21, %rc23;
GPGPU-Sim PTX: 37 (potential) branch divergence @  PC=0x1160 (_1.ptx:1040) @!%p26 bra BB4_16;
GPGPU-Sim PTX:    immediate post dominator      @  PC=0x14b0 (_1.ptx:1221) mov.u16 %rs18, %rs73;
GPGPU-Sim PTX: 38 (potential) branch divergence @  PC=0x11d0 (_1.ptx:1061) @%p27 bra BB4_43;
GPGPU-Sim PTX:    immediate post dominator      @  PC=0x14b0 (_1.ptx:1221) mov.u16 %rs18, %rs73;
GPGPU-Sim PTX: 39 (potential) branch divergence @  PC=0x11f8 (_1.ptx:1067) bra.uni BB4_53;
GPGPU-Sim PTX:    immediate post dominator      @  PC=0x1418 (_1.ptx:1187) mov.u16 %rs73, %rs72;
GPGPU-Sim PTX: 40 (potential) branch divergence @  PC=0x1278 (_1.ptx:1094) @%p28 bra BB4_40;
GPGPU-Sim PTX:    immediate post dominator      @  PC=0x1110 (_1.ptx:1025) mov.u16 %rc21, %rc23;
GPGPU-Sim PTX: 41 (potential) branch divergence @  PC=0x12b0 (_1.ptx:1107) @%p29 bra BB4_40;
GPGPU-Sim PTX:    immediate post dominator      @  PC=0x1110 (_1.ptx:1025) mov.u16 %rc21, %rc23;
GPGPU-Sim PTX: 42 (potential) branch divergence @  PC=0x12e8 (_1.ptx:1120) @%p30 bra BB4_40;
GPGPU-Sim PTX:    immediate post dominator      @  PC=0x1110 (_1.ptx:1025) mov.u16 %rc21, %rc23;
GPGPU-Sim PTX: 43 (potential) branch divergence @  PC=0x1320 (_1.ptx:1133) @%p31 bra BB4_40;
GPGPU-Sim PTX:    immediate post dominator      @  PC=0x1110 (_1.ptx:1025) mov.u16 %rc21, %rc23;
GPGPU-Sim PTX: 44 (potential) branch divergence @  PC=0x1350 (_1.ptx:1145) @%p32 bra BB4_40;
GPGPU-Sim PTX:    immediate post dominator      @  PC=0x1110 (_1.ptx:1025) mov.u16 %rc21, %rc23;
GPGPU-Sim PTX: 45 (potential) branch divergence @  PC=0x1368 (_1.ptx:1149) bra.uni BB4_40;
GPGPU-Sim PTX:    immediate post dominator      @  PC=0x1110 (_1.ptx:1025) mov.u16 %rc21, %rc23;
GPGPU-Sim PTX: 46 (potential) branch divergence @  PC=0x1380 (_1.ptx:1155) @%p33 bra BB4_51;
GPGPU-Sim PTX:    immediate post dominator      @  PC=0x13e0 (_1.ptx:1176) add.s32 %r159, %r159, -1;
GPGPU-Sim PTX: 47 (potential) branch divergence @  PC=0x1400 (_1.ptx:1180) bra.uni BB4_56;
GPGPU-Sim PTX:    immediate post dominator      @  PC=0x14b0 (_1.ptx:1221) mov.u16 %rs18, %rs73;
GPGPU-Sim PTX: 48 (potential) branch divergence @  PC=0x1440 (_1.ptx:1194) @%p34 bra BB4_55;
GPGPU-Sim PTX:    immediate post dominator      @  PC=0x14a0 (_1.ptx:1217) add.s32 %r129, %r159, -1;
GPGPU-Sim PTX: 49 (potential) branch divergence @  PC=0x1538 (_1.ptx:1245) @%p35 bra BB4_3;
GPGPU-Sim PTX:    immediate post dominator      @  PC=0x1540 (_1.ptx:1249) ret;
GPGPU-Sim PTX: ... end of reconvergence points for _Z17mummergpuRCKernelP10MatchCoordPcPKiS3_ii
GPGPU-Sim PTX: ... done pre-decoding instructions for '_Z17mummergpuRCKernelP10MatchCoordPcPKiS3_ii'.
GPGPU-Sim PTX: finished parsing EMBEDDED .ptx file _1.ptx
Adding _cuobjdump_2.ptx with cubin handle 1
GPGPU-Sim PTX: extracting embedded .ptx to temporary file "_ptx_3r4LWi"
Running: cat _ptx_3r4LWi | sed 's/.version 1.5/.version 1.4/' | sed 's/, texmode_independent//' | sed 's/\(\.extern \.const\[1\] .b8 \w\+\)\[\]/\1\[1\]/' | sed 's/const\[.\]/const\[0\]/g' > _ptx2_rgqx7v
GPGPU-Sim PTX: generating ptxinfo using "$CUDA_INSTALL_PATH/bin/ptxas --gpu-name=sm_20 -v _ptx2_rgqx7v --output-file  /dev/null 2> _ptx_3r4LWiinfo"
GPGPU-Sim PTX: Kernel '_Z15mummergpuKernelP10MatchCoordPcPKiS3_ii' : regs=22, lmem=0, smem=0, cmem=72
GPGPU-Sim PTX: Kernel '_Z17mummergpuRCKernelP10MatchCoordPcPKiS3_ii' : regs=21, lmem=0, smem=0, cmem=72
GPGPU-Sim PTX: removing ptxinfo using "rm -f _ptx_3r4LWi _ptx2_rgqx7v _ptx_3r4LWiinfo"
GPGPU-Sim PTX: loading globals with explicit initializers... 
GPGPU-Sim PTX: finished loading globals (0 bytes total).
GPGPU-Sim PTX: loading constants with explicit initializers...  done.
GPGPU-Sim PTX: __cudaRegisterFunction _Z15mummergpuKernelP10MatchCoordPcPKiS3_ii : hostFun 0x0x4097a0, fat_cubin_handle = 1
GPGPU-Sim PTX: in __cudaRegisterTexture:
GPGPU-Sim PTX:   int dim = 2
GPGPU-Sim PTX:   int norm = 0
GPGPU-Sim PTX:   int ext = 0
GPGPU-Sim PTX:   Execution warning: Not finished implementing "void __cudaRegisterTexture(void**, const textureReference*, const void**, const char*, int, int, int)"
GPGPU-Sim PTX: in __cudaRegisterTexture:
GPGPU-Sim PTX:   int dim = 2
GPGPU-Sim PTX:   int norm = 0
GPGPU-Sim PTX:   int ext = 0
GPGPU-Sim PTX:   Execution warning: Not finished implementing "void __cudaRegisterTexture(void**, const textureReference*, const void**, const char*, int, int, int)"
GPGPU-Sim PTX: in __cudaRegisterTexture:
GPGPU-Sim PTX:   int dim = 2
GPGPU-Sim PTX:   int norm = 0
GPGPU-Sim PTX:   int ext = 0
GPGPU-Sim PTX:   Execution warning: Not finished implementing "void __cudaRegisterTexture(void**, const textureReference*, const void**, const char*, int, int, int)"
GPGPU-Sim PTX: cudaMallocArray: devPtr32 = -2145733120
GPGPU-Sim PTX: cudaMemcpyToArray
GPGPU-Sim PTX: in cudaBindTextureToArray: 0x63da80 0x34adee0
GPGPU-Sim PTX:   devPtr32 = 801ab600
GPGPU-Sim PTX:   Name corresponding to textureReference: reftex
GPGPU-Sim PTX:   Texture Normalized? = 0
GPGPU-Sim PTX:   texel size = 1
GPGPU-Sim PTX:   texture cache linesize = 128
GPGPU-Sim PTX:   Tx = 16; Ty = 8, Tx_numbits = 4, Ty_numbits = 3
GPGPU-Sim PTX:   Texel size = 1 bytes; texel_size_numbits = 0
GPGPU-Sim PTX:   Binding texture to array starting at devPtr32 = 0x801ab600
GPGPU-Sim PTX:   Texel size = 1 bytes
GPGPU-Sim PTX: cudaMallocArray: devPtr32 = -2144029184
GPGPU-Sim PTX: cudaMemcpyToArray
GPGPU-Sim PTX: in cudaBindTextureToArray: 0x63d980 0x32d5b40
GPGPU-Sim PTX:   devPtr32 = 8034b600
GPGPU-Sim PTX:   Name corresponding to textureReference: nodetex
GPGPU-Sim PTX:   Texture Normalized? = 0
GPGPU-Sim PTX:   texel size = 16
GPGPU-Sim PTX:   texture cache linesize = 128
GPGPU-Sim PTX:   Tx = 4; Ty = 2, Tx_numbits = 2, Ty_numbits = 1
GPGPU-Sim PTX:   Texel size = 16 bytes; texel_size_numbits = 4
GPGPU-Sim PTX:   Binding texture to array starting at devPtr32 = 0x8034b600
GPGPU-Sim PTX:   Texel size = 16 bytes
GPGPU-Sim PTX: cudaMallocArray: devPtr32 = -2104838656
GPGPU-Sim PTX: cudaMemcpyToArray
GPGPU-Sim PTX: in cudaBindTextureToArray: 0x63da00 0x5d64450
GPGPU-Sim PTX:   devPtr32 = 828ab600
GPGPU-Sim PTX:   Name corresponding to textureReference: childrentex
GPGPU-Sim PTX:   Texture Normalized? = 0
GPGPU-Sim PTX:   texel size = 16
GPGPU-Sim PTX:   texture cache linesize = 128
GPGPU-Sim PTX:   Tx = 4; Ty = 2, Tx_numbits = 2, Ty_numbits = 1
GPGPU-Sim PTX:   Texel size = 16 bytes; texel_size_numbits = 4
GPGPU-Sim PTX:   Binding texture to array starting at devPtr32 = 0x828ab600
GPGPU-Sim PTX:   Texel size = 16 bytes

GPGPU-Sim PTX: cudaLaunch for 0x0x4097a0 (mode=performance simulation) on stream 0
GPGPU-Sim PTX: pushing kernel '_Z15mummergpuKernelP10MatchCoordPcPKiS3_ii' to stream 0, gridDim= (196,1,1) blockDim = (256,1,1) 
kernel '_Z15mummergpuKernelP10MatchCoordPcPKiS3_ii' transfer to GPU hardware scheduler
GPGPU-Sim uArch: Shader 1 bind to kernel 1 '_Z15mummergpuKernelP10MatchCoordPcPKiS3_ii'
GPGPU-Sim uArch: CTA/core = 5, limited by: regs
GPGPU-Sim uArch: core:  1, cta: 0 initialized @(1,0)
GPGPU-Sim uArch: Shader 2 bind to kernel 1 '_Z15mummergpuKernelP10MatchCoordPcPKiS3_ii'
GPGPU-Sim uArch: core:  2, cta: 0 initialized @(1,0)
GPGPU-Sim uArch: Shader 3 bind to kernel 1 '_Z15mummergpuKernelP10MatchCoordPcPKiS3_ii'
GPGPU-Sim uArch: core:  3, cta: 0 initialized @(1,0)
GPGPU-Sim uArch: Shader 4 bind to kernel 1 '_Z15mummergpuKernelP10MatchCoordPcPKiS3_ii'
GPGPU-Sim uArch: core:  4, cta: 0 initialized @(1,0)
GPGPU-Sim uArch: Shader 5 bind to kernel 1 '_Z15mummergpuKernelP10MatchCoordPcPKiS3_ii'
GPGPU-Sim uArch: core:  5, cta: 0 initialized @(1,0)
GPGPU-Sim uArch: Shader 6 bind to kernel 1 '_Z15mummergpuKernelP10MatchCoordPcPKiS3_ii'
GPGPU-Sim uArch: core:  6, cta: 0 initialized @(1,0)
GPGPU-Sim uArch: Shader 7 bind to kernel 1 '_Z15mummergpuKernelP10MatchCoordPcPKiS3_ii'
GPGPU-Sim uArch: core:  7, cta: 0 initialized @(1,0)
GPGPU-Sim uArch: Shader 8 bind to kernel 1 '_Z15mummergpuKernelP10MatchCoordPcPKiS3_ii'
GPGPU-Sim uArch: core:  8, cta: 0 initialized @(1,0)
GPGPU-Sim uArch: Shader 9 bind to kernel 1 '_Z15mummergpuKernelP10MatchCoordPcPKiS3_ii'
GPGPU-Sim uArch: core:  9, cta: 0 initialized @(1,0)
GPGPU-Sim uArch: Shader 10 bind to kernel 1 '_Z15mummergpuKernelP10MatchCoordPcPKiS3_ii'
GPGPU-Sim uArch: core: 10, cta: 0 initialized @(1,0)
GPGPU-Sim uArch: Shader 11 bind to kernel 1 '_Z15mummergpuKernelP10MatchCoordPcPKiS3_ii'
GPGPU-Sim uArch: core: 11, cta: 0 initialized @(1,0)
GPGPU-Sim uArch: Shader 12 bind to kernel 1 '_Z15mummergpuKernelP10MatchCoordPcPKiS3_ii'
GPGPU-Sim uArch: core: 12, cta: 0 initialized @(1,0)
GPGPU-Sim uArch: Shader 13 bind to kernel 1 '_Z15mummergpuKernelP10MatchCoordPcPKiS3_ii'
GPGPU-Sim uArch: core: 13, cta: 0 initialized @(1,0)
GPGPU-Sim uArch: Shader 14 bind to kernel 1 '_Z15mummergpuKernelP10MatchCoordPcPKiS3_ii'
GPGPU-Sim uArch: core: 14, cta: 0 initialized @(1,0)
GPGPU-Sim uArch: Shader 0 bind to kernel 1 '_Z15mummergpuKernelP10MatchCoordPcPKiS3_ii'
GPGPU-Sim uArch: core:  0, cta: 0 initialized @(1,0)
GPGPU-Sim uArch: core:  1, cta: 1 initialized @(2,0)
GPGPU-Sim uArch: core:  2, cta: 1 initialized @(2,0)
GPGPU-Sim uArch: core:  3, cta: 1 initialized @(2,0)
GPGPU-Sim uArch: core:  4, cta: 1 initialized @(2,0)
GPGPU-Sim uArch: core:  5, cta: 1 initialized @(2,0)
GPGPU-Sim uArch: core:  6, cta: 1 initialized @(2,0)
GPGPU-Sim uArch: core:  7, cta: 1 initialized @(2,0)
GPGPU-Sim uArch: core:  8, cta: 1 initialized @(2,0)
GPGPU-Sim uArch: core:  9, cta: 1 initialized @(2,0)
GPGPU-Sim uArch: core: 10, cta: 1 initialized @(2,0)
GPGPU-Sim uArch: core: 11, cta: 1 initialized @(2,0)
GPGPU-Sim uArch: core: 12, cta: 1 initialized @(2,0)
GPGPU-Sim uArch: core: 13, cta: 1 initialized @(2,0)
GPGPU-Sim uArch: core: 14, cta: 1 initialized @(2,0)
GPGPU-Sim uArch: core:  0, cta: 1 initialized @(2,0)
GPGPU-Sim uArch: core:  1, cta: 2 initialized @(3,0)
GPGPU-Sim uArch: core:  2, cta: 2 initialized @(3,0)
GPGPU-Sim uArch: core:  3, cta: 2 initialized @(3,0)
GPGPU-Sim uArch: core:  4, cta: 2 initialized @(3,0)
GPGPU-Sim uArch: core:  5, cta: 2 initialized @(3,0)
GPGPU-Sim uArch: core:  6, cta: 2 initialized @(3,0)
GPGPU-Sim uArch: core:  7, cta: 2 initialized @(3,0)
GPGPU-Sim uArch: core:  8, cta: 2 initialized @(3,0)
GPGPU-Sim uArch: core:  9, cta: 2 initialized @(3,0)
GPGPU-Sim uArch: core: 10, cta: 2 initialized @(3,0)
GPGPU-Sim uArch: core: 11, cta: 2 initialized @(3,0)
GPGPU-Sim uArch: core: 12, cta: 2 initialized @(3,0)
GPGPU-Sim uArch: core: 13, cta: 2 initialized @(3,0)
GPGPU-Sim uArch: core: 14, cta: 2 initialized @(3,0)
GPGPU-Sim uArch: core:  0, cta: 2 initialized @(3,0)
GPGPU-Sim uArch: core:  1, cta: 3 initialized @(4,0)
GPGPU-Sim uArch: core:  2, cta: 3 initialized @(4,0)
GPGPU-Sim uArch: core:  3, cta: 3 initialized @(4,0)
GPGPU-Sim uArch: core:  4, cta: 3 initialized @(4,0)
GPGPU-Sim uArch: core:  5, cta: 3 initialized @(4,0)
GPGPU-Sim uArch: core:  6, cta: 3 initialized @(4,0)
GPGPU-Sim uArch: core:  7, cta: 3 initialized @(4,0)
GPGPU-Sim uArch: core:  8, cta: 3 initialized @(4,0)
GPGPU-Sim uArch: core:  9, cta: 3 initialized @(4,0)
GPGPU-Sim uArch: core: 10, cta: 3 initialized @(4,0)
GPGPU-Sim uArch: core: 11, cta: 3 initialized @(4,0)
GPGPU-Sim uArch: core: 12, cta: 3 initialized @(4,0)
GPGPU-Sim uArch: core: 13, cta: 3 initialized @(4,0)
GPGPU-Sim uArch: core: 14, cta: 3 initialized @(4,0)
GPGPU-Sim uArch: core:  0, cta: 3 initialized @(4,0)
GPGPU-Sim uArch: core:  1, cta: 4 initialized @(5,0)
GPGPU-Sim uArch: core:  2, cta: 4 initialized @(5,0)
GPGPU-Sim uArch: core:  3, cta: 4 initialized @(5,0)
GPGPU-Sim uArch: core:  4, cta: 4 initialized @(5,0)
GPGPU-Sim uArch: core:  5, cta: 4 initialized @(5,0)
GPGPU-Sim uArch: core:  6, cta: 4 initialized @(5,0)
GPGPU-Sim uArch: core:  7, cta: 4 initialized @(5,0)
GPGPU-Sim uArch: core:  8, cta: 4 initialized @(5,0)
GPGPU-Sim uArch: core:  9, cta: 4 initialized @(5,0)
GPGPU-Sim uArch: core: 10, cta: 4 initialized @(5,0)
GPGPU-Sim uArch: core: 11, cta: 4 initialized @(5,0)
GPGPU-Sim uArch: core: 12, cta: 4 initialized @(5,0)
GPGPU-Sim uArch: core: 13, cta: 4 initialized @(5,0)
GPGPU-Sim uArch: core: 14, cta: 4 initialized @(5,0)
GPGPU-Sim uArch: core:  0, cta: 4 initialized @(5,0)
GPGPU-Sim uArch: cycles simulated: 500  inst.: 0 (ipc= 0.0) sim_rate=0 (inst/sec) elapsed = 0:0:00:14 / Mon Jun  6 17:43:27 2016
GPGPU-Sim PTX: 100000 instructions simulated : ctaid=(51,0,0) tid=(127,0,0)
GPGPU-Sim PTX: 200000 instructions simulated : ctaid=(36,0,0) tid=(95,0,0)
GPGPU-Sim uArch: cycles simulated: 1000  inst.: 233952 (ipc=234.0) sim_rate=14622 (inst/sec) elapsed = 0:0:00:16 / Mon Jun  6 17:43:29 2016
GPGPU-Sim PTX: 300000 instructions simulated : ctaid=(43,0,0) tid=(95,0,0)
GPGPU-Sim PTX: 400000 instructions simulated : ctaid=(67,0,0) tid=(95,0,0)
GPGPU-Sim uArch: cycles simulated: 1500  inst.: 422400 (ipc=281.6) sim_rate=23466 (inst/sec) elapsed = 0:0:00:18 / Mon Jun  6 17:43:31 2016
GPGPU-Sim PTX: 500000 instructions simulated : ctaid=(26,0,0) tid=(95,0,0)
GPGPU-Sim uArch: cycles simulated: 2000  inst.: 492096 (ipc=246.0) sim_rate=25899 (inst/sec) elapsed = 0:0:00:19 / Mon Jun  6 17:43:32 2016
GPGPU-Sim PTX: 600000 instructions simulated : ctaid=(5,0,0) tid=(63,0,0)
GPGPU-Sim PTX: WARNING (_1.ptx:286) ** reading undefined register '%rs39' (cuid:0). Setting to 0X00000000. This is okay if you are simulating the native ISA
GPGPU-Sim PTX: 700000 instructions simulated : ctaid=(40,0,0) tid=(255,0,0)
GPGPU-Sim uArch: cycles simulated: 2500  inst.: 711808 (ipc=284.7) sim_rate=33895 (inst/sec) elapsed = 0:0:00:21 / Mon Jun  6 17:43:34 2016
GPGPU-Sim PTX: 800000 instructions simulated : ctaid=(37,0,0) tid=(255,0,0)
GPGPU-Sim PTX: 900000 instructions simulated : ctaid=(47,0,0) tid=(223,0,0)
GPGPU-Sim PTX: 1000000 instructions simulated : ctaid=(0,0,0) tid=(255,0,0)
GPGPU-Sim PTX: 1100000 instructions simulated : ctaid=(58,0,0) tid=(159,0,0)
GPGPU-Sim uArch: cycles simulated: 3000  inst.: 1116576 (ipc=372.2) sim_rate=46524 (inst/sec) elapsed = 0:0:00:24 / Mon Jun  6 17:43:37 2016
GPGPU-Sim PTX: 1200000 instructions simulated : ctaid=(49,0,0) tid=(95,0,0)
GPGPU-Sim uArch: cycles simulated: 3500  inst.: 1168544 (ipc=333.9) sim_rate=46741 (inst/sec) elapsed = 0:0:00:25 / Mon Jun  6 17:43:38 2016
GPGPU-Sim uArch: cycles simulated: 4000  inst.: 1215264 (ipc=303.8) sim_rate=46740 (inst/sec) elapsed = 0:0:00:26 / Mon Jun  6 17:43:39 2016
GPGPU-Sim PTX: 1300000 instructions simulated : ctaid=(21,0,0) tid=(95,0,0)
GPGPU-Sim uArch: cycles simulated: 4500  inst.: 1296134 (ipc=288.0) sim_rate=46290 (inst/sec) elapsed = 0:0:00:28 / Mon Jun  6 17:43:41 2016
GPGPU-Sim PTX: 1400000 instructions simulated : ctaid=(63,0,0) tid=(8,0,0)
GPGPU-Sim uArch: cycles simulated: 5000  inst.: 1381293 (ipc=276.3) sim_rate=46043 (inst/sec) elapsed = 0:0:00:30 / Mon Jun  6 17:43:43 2016
GPGPU-Sim PTX: 1500000 instructions simulated : ctaid=(2,0,0) tid=(106,0,0)
GPGPU-Sim PTX: 1600000 instructions simulated : ctaid=(9,0,0) tid=(69,0,0)
GPGPU-Sim uArch: cycles simulated: 5500  inst.: 1562068 (ipc=284.0) sim_rate=50389 (inst/sec) elapsed = 0:0:00:31 / Mon Jun  6 17:43:44 2016
GPGPU-Sim PTX: 1700000 instructions simulated : ctaid=(21,0,0) tid=(252,0,0)
GPGPU-Sim PTX: 1800000 instructions simulated : ctaid=(13,0,0) tid=(162,0,0)
GPGPU-Sim uArch: cycles simulated: 6000  inst.: 1713284 (ipc=285.5) sim_rate=51917 (inst/sec) elapsed = 0:0:00:33 / Mon Jun  6 17:43:46 2016
GPGPU-Sim PTX: 1900000 instructions simulated : ctaid=(66,0,0) tid=(16,0,0)
GPGPU-Sim uArch: cycles simulated: 6500  inst.: 1885833 (ipc=290.1) sim_rate=53880 (inst/sec) elapsed = 0:0:00:35 / Mon Jun  6 17:43:48 2016
GPGPU-Sim PTX: 2000000 instructions simulated : ctaid=(40,0,0) tid=(186,0,0)
GPGPU-Sim PTX: 2100000 instructions simulated : ctaid=(40,0,0) tid=(191,0,0)
GPGPU-Sim uArch: cycles simulated: 7000  inst.: 2031852 (ipc=290.3) sim_rate=54914 (inst/sec) elapsed = 0:0:00:37 / Mon Jun  6 17:43:50 2016
GPGPU-Sim PTX: 2200000 instructions simulated : ctaid=(17,0,0) tid=(221,0,0)
GPGPU-Sim uArch: cycles simulated: 7500  inst.: 2108795 (ipc=281.2) sim_rate=54071 (inst/sec) elapsed = 0:0:00:39 / Mon Jun  6 17:43:52 2016
GPGPU-Sim PTX: 2300000 instructions simulated : ctaid=(9,0,0) tid=(23,0,0)
GPGPU-Sim uArch: cycles simulated: 8000  inst.: 2222690 (ipc=277.8) sim_rate=54211 (inst/sec) elapsed = 0:0:00:41 / Mon Jun  6 17:43:54 2016
GPGPU-Sim PTX: 2400000 instructions simulated : ctaid=(36,0,0) tid=(248,0,0)
GPGPU-Sim PTX: 2500000 instructions simulated : ctaid=(10,0,0) tid=(86,0,0)
GPGPU-Sim uArch: cycles simulated: 8500  inst.: 2393008 (ipc=281.5) sim_rate=55651 (inst/sec) elapsed = 0:0:00:43 / Mon Jun  6 17:43:56 2016
GPGPU-Sim PTX: 2600000 instructions simulated : ctaid=(36,0,0) tid=(115,0,0)
GPGPU-Sim uArch: cycles simulated: 9000  inst.: 2533109 (ipc=281.5) sim_rate=56291 (inst/sec) elapsed = 0:0:00:45 / Mon Jun  6 17:43:58 2016
GPGPU-Sim PTX: 2700000 instructions simulated : ctaid=(47,0,0) tid=(161,0,0)
GPGPU-Sim PTX: 2800000 instructions simulated : ctaid=(0,0,0) tid=(234,0,0)
GPGPU-Sim uArch: cycles simulated: 9500  inst.: 2672806 (ipc=281.3) sim_rate=58104 (inst/sec) elapsed = 0:0:00:46 / Mon Jun  6 17:43:59 2016
GPGPU-Sim PTX: 2900000 instructions simulated : ctaid=(20,0,0) tid=(5,0,0)
GPGPU-Sim PTX: 3000000 instructions simulated : ctaid=(4,0,0) tid=(146,0,0)
GPGPU-Sim uArch: cycles simulated: 10000  inst.: 2857037 (ipc=285.7) sim_rate=58306 (inst/sec) elapsed = 0:0:00:49 / Mon Jun  6 17:44:02 2016
GPGPU-Sim PTX: 3100000 instructions simulated : ctaid=(18,0,0) tid=(74,0,0)
GPGPU-Sim uArch: cycles simulated: 10500  inst.: 2996925 (ipc=285.4) sim_rate=59938 (inst/sec) elapsed = 0:0:00:50 / Mon Jun  6 17:44:03 2016
GPGPU-Sim PTX: 3200000 instructions simulated : ctaid=(4,0,0) tid=(206,0,0)
GPGPU-Sim PTX: 3300000 instructions simulated : ctaid=(3,0,0) tid=(63,0,0)
GPGPU-Sim uArch: cycles simulated: 11000  inst.: 3143872 (ipc=285.8) sim_rate=60459 (inst/sec) elapsed = 0:0:00:52 / Mon Jun  6 17:44:05 2016
GPGPU-Sim PTX: 3400000 instructions simulated : ctaid=(50,0,0) tid=(122,0,0)
GPGPU-Sim uArch: cycles simulated: 11500  inst.: 3274112 (ipc=284.7) sim_rate=60631 (inst/sec) elapsed = 0:0:00:54 / Mon Jun  6 17:44:07 2016
GPGPU-Sim PTX: 3500000 instructions simulated : ctaid=(17,0,0) tid=(2,0,0)
GPGPU-Sim uArch: cycles simulated: 12000  inst.: 3400445 (ipc=283.4) sim_rate=60722 (inst/sec) elapsed = 0:0:00:56 / Mon Jun  6 17:44:09 2016
GPGPU-Sim PTX: 3600000 instructions simulated : ctaid=(57,0,0) tid=(165,0,0)
GPGPU-Sim uArch: cycles simulated: 12500  inst.: 3486407 (ipc=278.9) sim_rate=60110 (inst/sec) elapsed = 0:0:00:58 / Mon Jun  6 17:44:11 2016
GPGPU-Sim PTX: 3700000 instructions simulated : ctaid=(25,0,0) tid=(177,0,0)
GPGPU-Sim uArch: cycles simulated: 13000  inst.: 3570981 (ipc=274.7) sim_rate=60525 (inst/sec) elapsed = 0:0:00:59 / Mon Jun  6 17:44:12 2016
GPGPU-Sim PTX: 3800000 instructions simulated : ctaid=(59,0,0) tid=(72,0,0)
GPGPU-Sim uArch: cycles simulated: 13500  inst.: 3649877 (ipc=270.4) sim_rate=59834 (inst/sec) elapsed = 0:0:01:01 / Mon Jun  6 17:44:14 2016
GPGPU-Sim PTX: 3900000 instructions simulated : ctaid=(37,0,0) tid=(19,0,0)
GPGPU-Sim uArch: cycles simulated: 14000  inst.: 3705842 (ipc=264.7) sim_rate=58822 (inst/sec) elapsed = 0:0:01:03 / Mon Jun  6 17:44:16 2016
GPGPU-Sim uArch: cycles simulated: 14500  inst.: 3754507 (ipc=258.9) sim_rate=58664 (inst/sec) elapsed = 0:0:01:04 / Mon Jun  6 17:44:17 2016
GPGPU-Sim PTX: 4000000 instructions simulated : ctaid=(15,0,0) tid=(80,0,0)
GPGPU-Sim uArch: cycles simulated: 15000  inst.: 3792050 (ipc=252.8) sim_rate=57455 (inst/sec) elapsed = 0:0:01:06 / Mon Jun  6 17:44:19 2016
GPGPU-Sim uArch: cycles simulated: 15500  inst.: 3821089 (ipc=246.5) sim_rate=57031 (inst/sec) elapsed = 0:0:01:07 / Mon Jun  6 17:44:20 2016
GPGPU-Sim uArch: cycles simulated: 16000  inst.: 3854094 (ipc=240.9) sim_rate=55856 (inst/sec) elapsed = 0:0:01:09 / Mon Jun  6 17:44:22 2016
GPGPU-Sim PTX: 4100000 instructions simulated : ctaid=(59,0,0) tid=(145,0,0)
GPGPU-Sim uArch: cycles simulated: 16500  inst.: 3887147 (ipc=235.6) sim_rate=55530 (inst/sec) elapsed = 0:0:01:10 / Mon Jun  6 17:44:23 2016
GPGPU-Sim uArch: cycles simulated: 17000  inst.: 3911505 (ipc=230.1) sim_rate=54326 (inst/sec) elapsed = 0:0:01:12 / Mon Jun  6 17:44:25 2016
GPGPU-Sim uArch: cycles simulated: 17500  inst.: 3953216 (ipc=225.9) sim_rate=54153 (inst/sec) elapsed = 0:0:01:13 / Mon Jun  6 17:44:26 2016
GPGPU-Sim PTX: 4200000 instructions simulated : ctaid=(8,0,0) tid=(81,0,0)
GPGPU-Sim uArch: cycles simulated: 18000  inst.: 3988939 (ipc=221.6) sim_rate=53185 (inst/sec) elapsed = 0:0:01:15 / Mon Jun  6 17:44:28 2016
GPGPU-Sim uArch: cycles simulated: 18500  inst.: 4025780 (ipc=217.6) sim_rate=52970 (inst/sec) elapsed = 0:0:01:16 / Mon Jun  6 17:44:29 2016
GPGPU-Sim uArch: cycles simulated: 19000  inst.: 4066256 (ipc=214.0) sim_rate=52131 (inst/sec) elapsed = 0:0:01:18 / Mon Jun  6 17:44:31 2016
GPGPU-Sim PTX: 4300000 instructions simulated : ctaid=(30,0,0) tid=(194,0,0)
GPGPU-Sim uArch: cycles simulated: 19500  inst.: 4107300 (ipc=210.6) sim_rate=51991 (inst/sec) elapsed = 0:0:01:19 / Mon Jun  6 17:44:32 2016
GPGPU-Sim uArch: cycles simulated: 20000  inst.: 4138816 (ipc=206.9) sim_rate=51735 (inst/sec) elapsed = 0:0:01:20 / Mon Jun  6 17:44:33 2016
GPGPU-Sim PTX: 4400000 instructions simulated : ctaid=(32,0,0) tid=(8,0,0)
GPGPU-Sim uArch: cycles simulated: 20500  inst.: 4179656 (ipc=203.9) sim_rate=50971 (inst/sec) elapsed = 0:0:01:22 / Mon Jun  6 17:44:35 2016
GPGPU-Sim uArch: cycles simulated: 21000  inst.: 4205396 (ipc=200.3) sim_rate=50667 (inst/sec) elapsed = 0:0:01:23 / Mon Jun  6 17:44:36 2016
GPGPU-Sim uArch: cycles simulated: 21500  inst.: 4238842 (ipc=197.2) sim_rate=49868 (inst/sec) elapsed = 0:0:01:25 / Mon Jun  6 17:44:38 2016
GPGPU-Sim PTX: 4500000 instructions simulated : ctaid=(2,0,0) tid=(87,0,0)
GPGPU-Sim uArch: cycles simulated: 22000  inst.: 4272260 (ipc=194.2) sim_rate=49106 (inst/sec) elapsed = 0:0:01:27 / Mon Jun  6 17:44:40 2016
GPGPU-Sim uArch: cycles simulated: 22500  inst.: 4308024 (ipc=191.5) sim_rate=48954 (inst/sec) elapsed = 0:0:01:28 / Mon Jun  6 17:44:41 2016
GPGPU-Sim uArch: cycles simulated: 23000  inst.: 4340146 (ipc=188.7) sim_rate=48223 (inst/sec) elapsed = 0:0:01:30 / Mon Jun  6 17:44:43 2016
GPGPU-Sim PTX: 4600000 instructions simulated : ctaid=(36,0,0) tid=(198,0,0)
GPGPU-Sim uArch: cycles simulated: 23500  inst.: 4373499 (ipc=186.1) sim_rate=48060 (inst/sec) elapsed = 0:0:01:31 / Mon Jun  6 17:44:44 2016
GPGPU-Sim uArch: cycles simulated: 24000  inst.: 4403116 (ipc=183.5) sim_rate=47345 (inst/sec) elapsed = 0:0:01:33 / Mon Jun  6 17:44:46 2016
GPGPU-Sim uArch: cycles simulated: 24500  inst.: 4430789 (ipc=180.8) sim_rate=47136 (inst/sec) elapsed = 0:0:01:34 / Mon Jun  6 17:44:47 2016
GPGPU-Sim PTX: 4700000 instructions simulated : ctaid=(11,0,0) tid=(221,0,0)
GPGPU-Sim uArch: cycles simulated: 25000  inst.: 4453660 (ipc=178.1) sim_rate=46392 (inst/sec) elapsed = 0:0:01:36 / Mon Jun  6 17:44:49 2016
GPGPU-Sim uArch: cycles simulated: 25500  inst.: 4486548 (ipc=175.9) sim_rate=46253 (inst/sec) elapsed = 0:0:01:37 / Mon Jun  6 17:44:50 2016
GPGPU-Sim uArch: cycles simulated: 26000  inst.: 4515567 (ipc=173.7) sim_rate=45611 (inst/sec) elapsed = 0:0:01:39 / Mon Jun  6 17:44:52 2016
GPGPU-Sim uArch: cycles simulated: 26500  inst.: 4541857 (ipc=171.4) sim_rate=45418 (inst/sec) elapsed = 0:0:01:40 / Mon Jun  6 17:44:53 2016
GPGPU-Sim PTX: 4800000 instructions simulated : ctaid=(13,0,0) tid=(113,0,0)
GPGPU-Sim uArch: cycles simulated: 27000  inst.: 4559541 (ipc=168.9) sim_rate=45143 (inst/sec) elapsed = 0:0:01:41 / Mon Jun  6 17:44:54 2016
GPGPU-Sim uArch: cycles simulated: 27500  inst.: 4585985 (ipc=166.8) sim_rate=44524 (inst/sec) elapsed = 0:0:01:43 / Mon Jun  6 17:44:56 2016
GPGPU-Sim uArch: cycles simulated: 28000  inst.: 4612008 (ipc=164.7) sim_rate=44346 (inst/sec) elapsed = 0:0:01:44 / Mon Jun  6 17:44:57 2016
GPGPU-Sim uArch: cycles simulated: 28500  inst.: 4635156 (ipc=162.6) sim_rate=43727 (inst/sec) elapsed = 0:0:01:46 / Mon Jun  6 17:44:59 2016
GPGPU-Sim PTX: 4900000 instructions simulated : ctaid=(13,0,0) tid=(60,0,0)
GPGPU-Sim uArch: cycles simulated: 29000  inst.: 4654805 (ipc=160.5) sim_rate=43502 (inst/sec) elapsed = 0:0:01:47 / Mon Jun  6 17:45:00 2016
GPGPU-Sim uArch: cycles simulated: 29500  inst.: 4682309 (ipc=158.7) sim_rate=42956 (inst/sec) elapsed = 0:0:01:49 / Mon Jun  6 17:45:02 2016
GPGPU-Sim uArch: cycles simulated: 30000  inst.: 4706474 (ipc=156.9) sim_rate=42786 (inst/sec) elapsed = 0:0:01:50 / Mon Jun  6 17:45:03 2016
GPGPU-Sim uArch: cycles simulated: 30500  inst.: 4733459 (ipc=155.2) sim_rate=42263 (inst/sec) elapsed = 0:0:01:52 / Mon Jun  6 17:45:05 2016
GPGPU-Sim PTX: 5000000 instructions simulated : ctaid=(3,0,0) tid=(74,0,0)
GPGPU-Sim uArch: cycles simulated: 31000  inst.: 4752323 (ipc=153.3) sim_rate=42055 (inst/sec) elapsed = 0:0:01:53 / Mon Jun  6 17:45:06 2016
GPGPU-Sim uArch: cycles simulated: 31500  inst.: 4773885 (ipc=151.6) sim_rate=41512 (inst/sec) elapsed = 0:0:01:55 / Mon Jun  6 17:45:08 2016
GPGPU-Sim uArch: cycles simulated: 32000  inst.: 4789679 (ipc=149.7) sim_rate=41290 (inst/sec) elapsed = 0:0:01:56 / Mon Jun  6 17:45:09 2016
GPGPU-Sim uArch: cycles simulated: 32500  inst.: 4812553 (ipc=148.1) sim_rate=40784 (inst/sec) elapsed = 0:0:01:58 / Mon Jun  6 17:45:11 2016
GPGPU-Sim PTX: 5100000 instructions simulated : ctaid=(13,0,0) tid=(30,0,0)
GPGPU-Sim uArch: cycles simulated: 33000  inst.: 4835993 (ipc=146.5) sim_rate=40299 (inst/sec) elapsed = 0:0:02:00 / Mon Jun  6 17:45:13 2016
GPGPU-Sim uArch: cycles simulated: 33500  inst.: 4854894 (ipc=144.9) sim_rate=40123 (inst/sec) elapsed = 0:0:02:01 / Mon Jun  6 17:45:14 2016
GPGPU-Sim uArch: cycles simulated: 34000  inst.: 4875127 (ipc=143.4) sim_rate=39635 (inst/sec) elapsed = 0:0:02:03 / Mon Jun  6 17:45:16 2016
GPGPU-Sim uArch: cycles simulated: 34500  inst.: 4895770 (ipc=141.9) sim_rate=39482 (inst/sec) elapsed = 0:0:02:04 / Mon Jun  6 17:45:17 2016
GPGPU-Sim uArch: cycles simulated: 35000  inst.: 4916773 (ipc=140.5) sim_rate=39022 (inst/sec) elapsed = 0:0:02:06 / Mon Jun  6 17:45:19 2016
GPGPU-Sim PTX: 5200000 instructions simulated : ctaid=(5,0,0) tid=(156,0,0)
GPGPU-Sim uArch: cycles simulated: 35500  inst.: 4943751 (ipc=139.3) sim_rate=38927 (inst/sec) elapsed = 0:0:02:07 / Mon Jun  6 17:45:20 2016
GPGPU-Sim uArch: cycles simulated: 36000  inst.: 4969988 (ipc=138.1) sim_rate=38527 (inst/sec) elapsed = 0:0:02:09 / Mon Jun  6 17:45:22 2016
GPGPU-Sim uArch: cycles simulated: 36500  inst.: 4992939 (ipc=136.8) sim_rate=38407 (inst/sec) elapsed = 0:0:02:10 / Mon Jun  6 17:45:23 2016
GPGPU-Sim uArch: cycles simulated: 37000  inst.: 5006560 (ipc=135.3) sim_rate=37928 (inst/sec) elapsed = 0:0:02:12 / Mon Jun  6 17:45:25 2016
GPGPU-Sim PTX: 5300000 instructions simulated : ctaid=(7,0,0) tid=(146,0,0)
GPGPU-Sim uArch: cycles simulated: 37500  inst.: 5022684 (ipc=133.9) sim_rate=37764 (inst/sec) elapsed = 0:0:02:13 / Mon Jun  6 17:45:26 2016
GPGPU-Sim uArch: cycles simulated: 38000  inst.: 5044539 (ipc=132.8) sim_rate=37366 (inst/sec) elapsed = 0:0:02:15 / Mon Jun  6 17:45:28 2016
GPGPU-Sim uArch: cycles simulated: 38500  inst.: 5063891 (ipc=131.5) sim_rate=37234 (inst/sec) elapsed = 0:0:02:16 / Mon Jun  6 17:45:29 2016
GPGPU-Sim uArch: cycles simulated: 39000  inst.: 5085655 (ipc=130.4) sim_rate=36852 (inst/sec) elapsed = 0:0:02:18 / Mon Jun  6 17:45:31 2016
GPGPU-Sim uArch: cycles simulated: 39500  inst.: 5099933 (ipc=129.1) sim_rate=36690 (inst/sec) elapsed = 0:0:02:19 / Mon Jun  6 17:45:32 2016
GPGPU-Sim PTX: 5400000 instructions simulated : ctaid=(8,0,0) tid=(191,0,0)
GPGPU-Sim uArch: cycles simulated: 40000  inst.: 5122619 (ipc=128.1) sim_rate=36330 (inst/sec) elapsed = 0:0:02:21 / Mon Jun  6 17:45:34 2016
GPGPU-Sim uArch: cycles simulated: 40500  inst.: 5141905 (ipc=127.0) sim_rate=36210 (inst/sec) elapsed = 0:0:02:22 / Mon Jun  6 17:45:35 2016
GPGPU-Sim uArch: cycles simulated: 41000  inst.: 5165454 (ipc=126.0) sim_rate=35871 (inst/sec) elapsed = 0:0:02:24 / Mon Jun  6 17:45:37 2016
GPGPU-Sim uArch: cycles simulated: 41500  inst.: 5183217 (ipc=124.9) sim_rate=35746 (inst/sec) elapsed = 0:0:02:25 / Mon Jun  6 17:45:38 2016
GPGPU-Sim uArch: cycles simulated: 42000  inst.: 5201651 (ipc=123.8) sim_rate=35385 (inst/sec) elapsed = 0:0:02:27 / Mon Jun  6 17:45:40 2016
GPGPU-Sim PTX: 5500000 instructions simulated : ctaid=(8,0,0) tid=(6,0,0)
GPGPU-Sim uArch: cycles simulated: 42500  inst.: 5217828 (ipc=122.8) sim_rate=35255 (inst/sec) elapsed = 0:0:02:28 / Mon Jun  6 17:45:41 2016
GPGPU-Sim uArch: cycles simulated: 43000  inst.: 5231895 (ipc=121.7) sim_rate=34879 (inst/sec) elapsed = 0:0:02:30 / Mon Jun  6 17:45:43 2016
GPGPU-Sim uArch: cycles simulated: 43500  inst.: 5246931 (ipc=120.6) sim_rate=34747 (inst/sec) elapsed = 0:0:02:31 / Mon Jun  6 17:45:44 2016
GPGPU-Sim uArch: cycles simulated: 44000  inst.: 5270531 (ipc=119.8) sim_rate=34447 (inst/sec) elapsed = 0:0:02:33 / Mon Jun  6 17:45:46 2016
GPGPU-Sim uArch: cycles simulated: 44500  inst.: 5280810 (ipc=118.7) sim_rate=34290 (inst/sec) elapsed = 0:0:02:34 / Mon Jun  6 17:45:47 2016
GPGPU-Sim uArch: cycles simulated: 45000  inst.: 5301885 (ipc=117.8) sim_rate=33986 (inst/sec) elapsed = 0:0:02:36 / Mon Jun  6 17:45:49 2016
GPGPU-Sim PTX: 5600000 instructions simulated : ctaid=(9,0,0) tid=(134,0,0)
GPGPU-Sim uArch: cycles simulated: 45500  inst.: 5325855 (ipc=117.1) sim_rate=33922 (inst/sec) elapsed = 0:0:02:37 / Mon Jun  6 17:45:50 2016
GPGPU-Sim uArch: cycles simulated: 46000  inst.: 5340121 (ipc=116.1) sim_rate=33585 (inst/sec) elapsed = 0:0:02:39 / Mon Jun  6 17:45:52 2016
GPGPU-Sim uArch: cycles simulated: 46500  inst.: 5364239 (ipc=115.4) sim_rate=33526 (inst/sec) elapsed = 0:0:02:40 / Mon Jun  6 17:45:53 2016
GPGPU-Sim uArch: cycles simulated: 47000  inst.: 5379357 (ipc=114.5) sim_rate=33205 (inst/sec) elapsed = 0:0:02:42 / Mon Jun  6 17:45:55 2016
GPGPU-Sim uArch: cycles simulated: 47500  inst.: 5396076 (ipc=113.6) sim_rate=33104 (inst/sec) elapsed = 0:0:02:43 / Mon Jun  6 17:45:56 2016
GPGPU-Sim PTX: 5700000 instructions simulated : ctaid=(28,0,0) tid=(209,0,0)
GPGPU-Sim uArch: cycles simulated: 48000  inst.: 5412385 (ipc=112.8) sim_rate=32802 (inst/sec) elapsed = 0:0:02:45 / Mon Jun  6 17:45:58 2016
GPGPU-Sim uArch: cycles simulated: 48500  inst.: 5429283 (ipc=111.9) sim_rate=32706 (inst/sec) elapsed = 0:0:02:46 / Mon Jun  6 17:45:59 2016
GPGPU-Sim uArch: cycles simulated: 49000  inst.: 5449626 (ipc=111.2) sim_rate=32438 (inst/sec) elapsed = 0:0:02:48 / Mon Jun  6 17:46:01 2016
GPGPU-Sim uArch: cycles simulated: 49500  inst.: 5471094 (ipc=110.5) sim_rate=32373 (inst/sec) elapsed = 0:0:02:49 / Mon Jun  6 17:46:02 2016
GPGPU-Sim PTX: 5800000 instructions simulated : ctaid=(13,0,0) tid=(42,0,0)
GPGPU-Sim uArch: cycles simulated: 50000  inst.: 5492474 (ipc=109.8) sim_rate=32308 (inst/sec) elapsed = 0:0:02:50 / Mon Jun  6 17:46:03 2016
GPGPU-Sim uArch: cycles simulated: 50500  inst.: 5508478 (ipc=109.1) sim_rate=32026 (inst/sec) elapsed = 0:0:02:52 / Mon Jun  6 17:46:05 2016
GPGPU-Sim uArch: cycles simulated: 51000  inst.: 5522633 (ipc=108.3) sim_rate=31922 (inst/sec) elapsed = 0:0:02:53 / Mon Jun  6 17:46:06 2016
GPGPU-Sim uArch: cycles simulated: 51500  inst.: 5545291 (ipc=107.7) sim_rate=31687 (inst/sec) elapsed = 0:0:02:55 / Mon Jun  6 17:46:08 2016
GPGPU-Sim uArch: cycles simulated: 52000  inst.: 5567038 (ipc=107.1) sim_rate=31630 (inst/sec) elapsed = 0:0:02:56 / Mon Jun  6 17:46:09 2016
GPGPU-Sim uArch: cycles simulated: 52500  inst.: 5585148 (ipc=106.4) sim_rate=31377 (inst/sec) elapsed = 0:0:02:58 / Mon Jun  6 17:46:11 2016
GPGPU-Sim PTX: 5900000 instructions simulated : ctaid=(24,0,0) tid=(192,0,0)
GPGPU-Sim uArch: cycles simulated: 53000  inst.: 5604400 (ipc=105.7) sim_rate=31309 (inst/sec) elapsed = 0:0:02:59 / Mon Jun  6 17:46:12 2016
GPGPU-Sim uArch: cycles simulated: 53500  inst.: 5618573 (ipc=105.0) sim_rate=31041 (inst/sec) elapsed = 0:0:03:01 / Mon Jun  6 17:46:14 2016
GPGPU-Sim uArch: cycles simulated: 54000  inst.: 5635833 (ipc=104.4) sim_rate=30966 (inst/sec) elapsed = 0:0:03:02 / Mon Jun  6 17:46:15 2016
GPGPU-Sim uArch: cycles simulated: 54500  inst.: 5654406 (ipc=103.8) sim_rate=30730 (inst/sec) elapsed = 0:0:03:04 / Mon Jun  6 17:46:17 2016
GPGPU-Sim uArch: cycles simulated: 55000  inst.: 5678225 (ipc=103.2) sim_rate=30528 (inst/sec) elapsed = 0:0:03:06 / Mon Jun  6 17:46:19 2016
GPGPU-Sim PTX: 6000000 instructions simulated : ctaid=(9,0,0) tid=(40,0,0)
GPGPU-Sim uArch: cycles simulated: 55500  inst.: 5692661 (ipc=102.6) sim_rate=30442 (inst/sec) elapsed = 0:0:03:07 / Mon Jun  6 17:46:20 2016
GPGPU-Sim uArch: cycles simulated: 56000  inst.: 5711929 (ipc=102.0) sim_rate=30221 (inst/sec) elapsed = 0:0:03:09 / Mon Jun  6 17:46:22 2016
GPGPU-Sim uArch: cycles simulated: 56500  inst.: 5731438 (ipc=101.4) sim_rate=30007 (inst/sec) elapsed = 0:0:03:11 / Mon Jun  6 17:46:24 2016
GPGPU-Sim uArch: cycles simulated: 57000  inst.: 5759541 (ipc=101.0) sim_rate=29688 (inst/sec) elapsed = 0:0:03:14 / Mon Jun  6 17:46:27 2016
GPGPU-Sim PTX: 6100000 instructions simulated : ctaid=(40,0,0) tid=(3,0,0)
GPGPU-Sim uArch: cycles simulated: 57500  inst.: 5775296 (ipc=100.4) sim_rate=29616 (inst/sec) elapsed = 0:0:03:15 / Mon Jun  6 17:46:28 2016
GPGPU-Sim uArch: cycles simulated: 58000  inst.: 5794069 (ipc=99.9) sim_rate=29411 (inst/sec) elapsed = 0:0:03:17 / Mon Jun  6 17:46:30 2016
GPGPU-Sim uArch: cycles simulated: 58500  inst.: 5807969 (ipc=99.3) sim_rate=29185 (inst/sec) elapsed = 0:0:03:19 / Mon Jun  6 17:46:32 2016
GPGPU-Sim uArch: cycles simulated: 59000  inst.: 5822131 (ipc=98.7) sim_rate=28965 (inst/sec) elapsed = 0:0:03:21 / Mon Jun  6 17:46:34 2016
GPGPU-Sim uArch: cycles simulated: 59500  inst.: 5841857 (ipc=98.2) sim_rate=28920 (inst/sec) elapsed = 0:0:03:22 / Mon Jun  6 17:46:35 2016
GPGPU-Sim uArch: cycles simulated: 60000  inst.: 5856023 (ipc=97.6) sim_rate=28705 (inst/sec) elapsed = 0:0:03:24 / Mon Jun  6 17:46:37 2016
GPGPU-Sim PTX: 6200000 instructions simulated : ctaid=(30,0,0) tid=(22,0,0)
GPGPU-Sim uArch: cycles simulated: 60500  inst.: 5875710 (ipc=97.1) sim_rate=28662 (inst/sec) elapsed = 0:0:03:25 / Mon Jun  6 17:46:38 2016
GPGPU-Sim uArch: cycles simulated: 61000  inst.: 5893444 (ipc=96.6) sim_rate=28470 (inst/sec) elapsed = 0:0:03:27 / Mon Jun  6 17:46:40 2016
GPGPU-Sim uArch: cycles simulated: 61500  inst.: 5916994 (ipc=96.2) sim_rate=28310 (inst/sec) elapsed = 0:0:03:29 / Mon Jun  6 17:46:42 2016
GPGPU-Sim uArch: cycles simulated: 62000  inst.: 5937690 (ipc=95.8) sim_rate=28274 (inst/sec) elapsed = 0:0:03:30 / Mon Jun  6 17:46:43 2016
GPGPU-Sim uArch: cycles simulated: 62500  inst.: 5957471 (ipc=95.3) sim_rate=28101 (inst/sec) elapsed = 0:0:03:32 / Mon Jun  6 17:46:45 2016
GPGPU-Sim PTX: 6300000 instructions simulated : ctaid=(25,0,0) tid=(25,0,0)
GPGPU-Sim uArch: cycles simulated: 63000  inst.: 5974920 (ipc=94.8) sim_rate=27920 (inst/sec) elapsed = 0:0:03:34 / Mon Jun  6 17:46:47 2016
GPGPU-Sim uArch: cycles simulated: 63500  inst.: 5991057 (ipc=94.3) sim_rate=27736 (inst/sec) elapsed = 0:0:03:36 / Mon Jun  6 17:46:49 2016
GPGPU-Sim uArch: cycles simulated: 64000  inst.: 6013777 (ipc=94.0) sim_rate=27713 (inst/sec) elapsed = 0:0:03:37 / Mon Jun  6 17:46:50 2016
GPGPU-Sim uArch: cycles simulated: 64500  inst.: 6028487 (ipc=93.5) sim_rate=27527 (inst/sec) elapsed = 0:0:03:39 / Mon Jun  6 17:46:52 2016
GPGPU-Sim uArch: cycles simulated: 65000  inst.: 6047643 (ipc=93.0) sim_rate=27489 (inst/sec) elapsed = 0:0:03:40 / Mon Jun  6 17:46:53 2016
GPGPU-Sim PTX: 6400000 instructions simulated : ctaid=(0,0,0) tid=(169,0,0)
GPGPU-Sim uArch: cycles simulated: 65500  inst.: 6067223 (ipc=92.6) sim_rate=27329 (inst/sec) elapsed = 0:0:03:42 / Mon Jun  6 17:46:55 2016
GPGPU-Sim uArch: cycles simulated: 66000  inst.: 6085077 (ipc=92.2) sim_rate=27287 (inst/sec) elapsed = 0:0:03:43 / Mon Jun  6 17:46:56 2016
GPGPU-Sim uArch: cycles simulated: 66500  inst.: 6103070 (ipc=91.8) sim_rate=27124 (inst/sec) elapsed = 0:0:03:45 / Mon Jun  6 17:46:58 2016
GPGPU-Sim uArch: cycles simulated: 67000  inst.: 6126358 (ipc=91.4) sim_rate=26988 (inst/sec) elapsed = 0:0:03:47 / Mon Jun  6 17:47:00 2016
GPGPU-Sim uArch: cycles simulated: 67500  inst.: 6149296 (ipc=91.1) sim_rate=26970 (inst/sec) elapsed = 0:0:03:48 / Mon Jun  6 17:47:01 2016
GPGPU-Sim PTX: 6500000 instructions simulated : ctaid=(46,0,0) tid=(129,0,0)
GPGPU-Sim uArch: cycles simulated: 68000  inst.: 6165156 (ipc=90.7) sim_rate=26805 (inst/sec) elapsed = 0:0:03:50 / Mon Jun  6 17:47:03 2016
GPGPU-Sim uArch: cycles simulated: 68500  inst.: 6187319 (ipc=90.3) sim_rate=26669 (inst/sec) elapsed = 0:0:03:52 / Mon Jun  6 17:47:05 2016
GPGPU-Sim uArch: cycles simulated: 69000  inst.: 6210317 (ipc=90.0) sim_rate=26653 (inst/sec) elapsed = 0:0:03:53 / Mon Jun  6 17:47:06 2016
GPGPU-Sim uArch: cycles simulated: 69500  inst.: 6227987 (ipc=89.6) sim_rate=26502 (inst/sec) elapsed = 0:0:03:55 / Mon Jun  6 17:47:08 2016
GPGPU-Sim uArch: cycles simulated: 70000  inst.: 6244465 (ipc=89.2) sim_rate=26459 (inst/sec) elapsed = 0:0:03:56 / Mon Jun  6 17:47:09 2016
GPGPU-Sim PTX: 6600000 instructions simulated : ctaid=(26,0,0) tid=(79,0,0)
GPGPU-Sim uArch: cycles simulated: 70500  inst.: 6265239 (ipc=88.9) sim_rate=26324 (inst/sec) elapsed = 0:0:03:58 / Mon Jun  6 17:47:11 2016
GPGPU-Sim uArch: cycles simulated: 71000  inst.: 6280363 (ipc=88.5) sim_rate=26277 (inst/sec) elapsed = 0:0:03:59 / Mon Jun  6 17:47:12 2016
GPGPU-Sim uArch: cycles simulated: 71500  inst.: 6297662 (ipc=88.1) sim_rate=26131 (inst/sec) elapsed = 0:0:04:01 / Mon Jun  6 17:47:14 2016
GPGPU-Sim uArch: cycles simulated: 72000  inst.: 6314361 (ipc=87.7) sim_rate=26092 (inst/sec) elapsed = 0:0:04:02 / Mon Jun  6 17:47:15 2016
GPGPU-Sim uArch: cycles simulated: 72500  inst.: 6329591 (ipc=87.3) sim_rate=25940 (inst/sec) elapsed = 0:0:04:04 / Mon Jun  6 17:47:17 2016
GPGPU-Sim PTX: 6700000 instructions simulated : ctaid=(25,0,0) tid=(11,0,0)
GPGPU-Sim uArch: cycles simulated: 73000  inst.: 6344389 (ipc=86.9) sim_rate=25895 (inst/sec) elapsed = 0:0:04:05 / Mon Jun  6 17:47:18 2016
GPGPU-Sim uArch: cycles simulated: 73500  inst.: 6367307 (ipc=86.6) sim_rate=25778 (inst/sec) elapsed = 0:0:04:07 / Mon Jun  6 17:47:20 2016
GPGPU-Sim uArch: cycles simulated: 74000  inst.: 6379015 (ipc=86.2) sim_rate=25721 (inst/sec) elapsed = 0:0:04:08 / Mon Jun  6 17:47:21 2016
GPGPU-Sim uArch: cycles simulated: 74500  inst.: 6396737 (ipc=85.9) sim_rate=25689 (inst/sec) elapsed = 0:0:04:09 / Mon Jun  6 17:47:22 2016
GPGPU-Sim uArch: cycles simulated: 75000  inst.: 6417715 (ipc=85.6) sim_rate=25568 (inst/sec) elapsed = 0:0:04:11 / Mon Jun  6 17:47:24 2016
GPGPU-Sim PTX: 6800000 instructions simulated : ctaid=(25,0,0) tid=(119,0,0)
GPGPU-Sim uArch: cycles simulated: 75500  inst.: 6441798 (ipc=85.3) sim_rate=25562 (inst/sec) elapsed = 0:0:04:12 / Mon Jun  6 17:47:25 2016
GPGPU-Sim uArch: cycles simulated: 76000  inst.: 6466460 (ipc=85.1) sim_rate=25458 (inst/sec) elapsed = 0:0:04:14 / Mon Jun  6 17:47:27 2016
GPGPU-Sim uArch: cycles simulated: 76500  inst.: 6486247 (ipc=84.8) sim_rate=25436 (inst/sec) elapsed = 0:0:04:15 / Mon Jun  6 17:47:28 2016
GPGPU-Sim uArch: cycles simulated: 77000  inst.: 6500103 (ipc=84.4) sim_rate=25292 (inst/sec) elapsed = 0:0:04:17 / Mon Jun  6 17:47:30 2016
[...]
> rid49134
> rid49135
> rid49136
> rid49137
 1008519         1        25
> rid49138
> rid49139
 1209092         1        25
> rid49140
   45736         1        25
> rid49141
   27157         1        25
> rid49142
> rid49143
> rid49144
> rid49145
 1374700         1        25
> rid49146
> rid49147
> rid49148
 1214320         1        25
> rid49149
> rid49150
> rid49151
> rid49152
> rid49153
  600394         1        25
> rid49154
> rid49155
> rid49156
> rid49157
> rid49158
> rid49159
  181933         1        25
> rid49160
> rid49161
> rid49162
   40771         1        25
> rid49163
> rid49164
 1267747         1        25
> rid49165
> rid49166
> rid49167
> rid49168
> rid49169
> rid49170
> rid49171
 1091494         1        25
> rid49172
  818759         1        25
> rid49173
> rid49174
> rid49175
> rid49176
  806236         1        25
> rid49177
> rid49178
> rid49179
> rid49180
> rid49181
> rid49182
> rid49183
  681677         1        25
> rid49184
> rid49185
> rid49186
> rid49187
> rid49188
> rid49189
   56152         1        25
> rid49190
> rid49191
> rid49192
> rid49193
 1129725         1        25
> rid49194
> rid49195
> rid49196
> rid49197
  408785         1        25
> rid49198
  691453         1        25
> rid49199
> rid49200
> rid49201
  821432         1        25
> rid49202
> rid49203
> rid49204
> rid49205
> rid49206
 1131436         1        25
> rid49207
> rid49208
> rid49209
> rid49210
  689927         1        25
> rid49211
> rid49212
> rid49213
> rid49214
> rid49215
> rid49216
> rid49217
> rid49218
> rid49219
   64380         1        25
> rid49220
> rid49221
  523711         1        25
> rid49222
 1293656         1        25
> rid49223
> rid49224
  567033         1        25
> rid49225
  460951         1        25
> rid49226
> rid49227
> rid49228
> rid49229
> rid49230
> rid49231
> rid49232
> rid49233
 1188744         1        25
> rid49234
  515326         1        25
> rid49235
> rid49236
   57914         1        25
> rid49237
> rid49238
> rid49239
 1377798         1        25
> rid49240
> rid49241
> rid49242
 1018612         1        25
> rid49243
> rid49244
  533876         1        22
  742977         1        25
   10748         1        25
   30542         1        25
  146928         1        25
   83864         1        25
  291498         1        25
  247648         1        25
  268227         1        25
  281525         1        25
> rid49245
  130201         1        25
> rid49246
> rid49247
  941556         1        25
> rid49248
> rid49249
> rid49250
 1114905         1        25
> rid49251
  861975         1        25
> rid49252
> rid49253
> rid49254
> rid49255
> rid49256
  984678         1        25
> rid49257
> rid49258
> rid49259
> rid49260
> rid49261
> rid49262
> rid49263
> rid49264
> rid49265
> rid49266
> rid49267
> rid49268
> rid49269
> rid49270
  833480         1        25
> rid49271
> rid49272
> rid49273
> rid49274
> rid49275
  230839         1        25
> rid49276
  377339         1        25
> rid49277
> rid49278
> rid49279
  640598         1        25
> rid49280
  440738         1        25
> rid49281
> rid49282
 1141785         1        25
> rid49283
> rid49284
> rid49285
> rid49286
> rid49287
> rid49288
  413630         1        25
> rid49289
> rid49290
> rid49291
> rid49292
> rid49293
 1042788         1        25
> rid49294
> rid49295
> rid49296
 1369856         1        25
> rid49297
 1288106         1        25
> rid49298
> rid49299
> rid49300
  640004         1        25
> rid49301
> rid49302
> rid49303
  530057         1        25
> rid49304
> rid49305
> rid49306
> rid49307
> rid49308
> rid49309
> rid49310
> rid49311
> rid49312
> rid49313
> rid49314
 1023241         1        25
> rid49315
 1298049         1        25
> rid49316
> rid49317
> rid49318
> rid49319
> rid49320
> rid49321
> rid49322
> rid49323
> rid49324
> rid49325
> rid49326
> rid49327
 1124394         1        25
> rid49328
> rid49329
 1297277         1        25
> rid49330
  745222         1        25
  536113         1        25
   86109         1        25
  149173         1        25
  293743         1        25
  249893         1        25
   13220         1        25
   33014         1        25
  270472         1        25
  283770         1        25
> rid49331
  411847         1        25
> rid49332
 1044749         1        25
> rid49333
> rid49334
> rid49335
  319720         1        25
> rid49336
 1217615         1        25
> rid49337
> rid49338
 1114625         1        25
> rid49339
> rid49340
> rid49341
> rid49342
> rid49343
 1184038         1        25
> rid49344
  661947         1        25
> rid49345
> rid49346
> rid49347
> rid49348
 1340670         1        25
> rid49349
> rid49350
  481543         1        25
> rid49351
  332874         1        25
> rid49352
> rid49353
  548905         1        25
> rid49354
 1126690         1        25
> rid49355
> rid49356
> rid49357
> rid49358
  271848         1        25
> rid49359
> rid49360
> rid49361
> rid49362
> rid49363
> rid49364
> rid49365
 1319507         1        25
> rid49366
> rid49367
> rid49368
> rid49369
> rid49370
> rid49371
> rid49372
> rid49373
  533615         1        25
  742716         1        25
   10487         1        25
   30281         1        25
  146667         1        25
   83603         1        25
  291237         1        25
  247387         1        25
  267966         1        25
  281264         1        25
> rid49374
> rid49375
> rid49376
> rid49377
> rid49378
> rid49379
> rid49380
> rid49381
> rid49382
> rid49383
> rid49384
> rid49385
> rid49386
> rid49387
> rid49388
> rid49389
  206848         1        25
> rid49390
> rid49391
  536195         1        25
   86191         1        25
  745304         1        25
  149255         1        25
  293825         1        25
  249975         1        25
   13302         1        25
   33096         1        25
  270554         1        25
  283852         1        25
> rid49392
> rid49393
  367866         1        25
> rid49394
 1385446         1        25
> rid49395
> rid49396
> rid49397
  209356         1        25
> rid49398
> rid49399
 1246593         1        25
> rid49400
> rid49401
> rid49402
 1023575         1        25
> rid49403
  776536         1        25
> rid49404
> rid49405
> rid49406
> rid49407
> rid49408
> rid49409
  723469         1        25
> rid49410
> rid49411
> rid49412
> rid49413
 1250646         1        25
> rid49414
> rid49415
> rid49416
> rid49417
  241700         1        25
> rid49418
> rid49419
> rid49420
> rid49421
  968857         1        25
> rid49422
> rid49423
> rid49424
> rid49425
> rid49426
> rid49427
 1376593         1        25
> rid49428
> rid49429
  654595         1        25
> rid49430
 1124691         1        25
> rid49431
  790836         1        25
> rid49432
> rid49433
> rid49434
> rid49435
> rid49436
> rid49437
> rid49438
> rid49439
  432399         1        25
> rid49440
> rid49441
> rid49442
> rid49443
> rid49444
> rid49445
> rid49446
> rid49447
   89099         1        25
> rid49448
> rid49449
> rid49450
> rid49451
> rid49452
  984815         1        25
> rid49453
> rid49454
  801369         1        25
> rid49455
 1332032         1        25
> rid49456
  717025         1        25
> rid49457
 1398665         1        25
> rid49458
> rid49459
 1141772         1        25
> rid49460
> rid49461
> rid49462
> rid49463
> rid49464
  141697         1        25
> rid49465
 1357232         1        25
> rid49466
> rid49467
> rid49468
> rid49469
> rid49470
> rid49471
> rid49472
> rid49473
> rid49474
 1165129         1        25
> rid49475
  196334         1        25
> rid49476
> rid49477
 1377120         1        25
> rid49478
   27848         1        25
> rid49479
> rid49480
> rid49481
> rid49482
> rid49483
> rid49484
> rid49485
  465122         1        25
> rid49486
 1240136         1        25
> rid49487
> rid49488
  685446         1        25
> rid49489
> rid49490
> rid49491
> rid49492
> rid49493
> rid49494
> rid49495
> rid49496
> rid49497
> rid49498
> rid49499
 1203801         1        25
> rid49500
 1206984         1        25
> rid49501
> rid49502
> rid49503
> rid49504
  465123         1        25
> rid49505
  354053         1        25
> rid49506
  231681         1        25
> rid49507
  612319         1        25
> rid49508
> rid49509
> rid49510
  938705         1        25
> rid49511
> rid49512
> rid49513
> rid49514
> rid49515
> rid49516
> rid49517
> rid49518
> rid49519
> rid49520
> rid49521
> rid49522
  314957         1        25
> rid49523
> rid49524
> rid49525
> rid49526
> rid49527
 1234927         1        25
> rid49528
> rid49529
> rid49530
> rid49531
> rid49532
> rid49533
  707755         1        25
> rid49534
> rid49535
> rid49536
> rid49537
> rid49538
> rid49539
> rid49540
  228749         1        25
> rid49541
> rid49542
> rid49543
> rid49544
> rid49545
> rid49546
  397847         1        25
> rid49547
> rid49548
> rid49549
> rid49550
> rid49551
> rid49552
> rid49553
  511359         1        25
> rid49554
> rid49555
> rid49556
> rid49557
  938156         1        25
> rid49558
> rid49559
   63489         1        25
> rid49560
> rid49561
  757965         1        25
> rid49562
> rid49563
> rid49564
   11371         1        25
   31165         1        25
  743373         1        25
  147324         1        25
   84260         1        25
  291894         1        25
  248044         1        25
  268623         1        25
  534264         1        25
  281921         1        25
> rid49565
> rid49566
> rid49567
> rid49568
> rid49569
> rid49570
 1046023         1        25
> rid49571
  220989         1        25
> rid49572
> rid49573
> rid49574
 1053134         1        25
> rid49575
> rid49576
> rid49577
> rid49578
> rid49579
> rid49580
  379487         1        25
> rid49581
> rid49582
> rid49583
> rid49584
  803791         1        25
> rid49585
> rid49586
  789340         1        25
> rid49587
> rid49588
  641168         1        25
> rid49589
 1086216         1        25
> rid49590
  522368         1        25
> rid49591
> rid49592
> rid49593
> rid49594
> rid49595
> rid49596
 1008335         1        25
> rid49597
> rid49598
> rid49599
> rid49600
  895585         1        25
> rid49601
> rid49602
> rid49603
> rid49604
  481273         1        25
> rid49605
 1265360         1        25
> rid49606
  945997         1        25
> rid49607
  866211         1        25
> rid49608
> rid49609
> rid49610
 1132354         1        25
> rid49611
> rid49612
  254664         1        25
> rid49613
> rid49614
> rid49615
> rid49616
 1042789         1        25
> rid49617
 1099512         1        25
> rid49618
> rid49619
> rid49620
> rid49621
> rid49622
> rid49623
  610559         1        25
> rid49624
  137795         1        25
> rid49625
> rid49626
> rid49627
  869202         1        25
> rid49628
  924772         1        25
> rid49629
> rid49630
> rid49631
  503804         1        25
> rid49632
> rid49633
> rid49634
> rid49635
> rid49636
> rid49637
> rid49638
> rid49639
 1348636         1        25
> rid49640
> rid49641
> rid49642
  443541         1        25
> rid49643
> rid49644
> rid49645
  604490         1        25
> rid49646
> rid49647
> rid49648
> rid49649
> rid49650
  301575         1        25
> rid49651
> rid49652
> rid49653
> rid49654
> rid49655
> rid49656
> rid49657
 1226070         1        25
> rid49658
> rid49659
> rid49660
  717745         1        25
> rid49661
  238563         1        25
> rid49662
> rid49663
  657195         1        25
> rid49664
> rid49665
  308691         1        25
> rid49666
  367792         1        25
> rid49667
> rid49668
   36855         1        25
> rid49669
> rid49670
> rid49671
> rid49672
  693603         1        25
> rid49673
> rid49674
> rid49675
> rid49676
  195960         1        25
> rid49677
> rid49678
> rid49679
> rid49680
> rid49681
  503639         1        25
> rid49682
> rid49683
  802855         1        25
> rid49684
> rid49685
> rid49686
   83466         1        25
  247250         1        25
  267829         1        25
  281127         1        25
   30144         1        25
  291100         1        25
  533478         1        25
   10350         1        25
  146530         1        25
  742584         6        20
> rid49687
   86592         1        25
  745705         1        25
  149656         1        25
  294226         1        25
  250376         1        25
   13703         1        25
   33497         1        25
  536596         1        25
  270955         1        25
  284253         1        25
> rid49688
  828545         1        25
> rid49689
> rid49690
> rid49691
> rid49692
> rid49693
> rid49694
> rid49695
> rid49696
 1047497         1        25
> rid49697
> rid49698
> rid49699
> rid49700
  933309         1        25
> rid49701
> rid49702
> rid49703
> rid49704
> rid49705
> rid49706
 1188654         1        25
> rid49707
> rid49708
  546041         1        25
> rid49709
> rid49710
  297402         1        25
> rid49711
  792102         1        25
> rid49712
 1071385         1        25
> rid49713
> rid49714
> rid49715
> rid49716
  850276         1        25
> rid49717
  744443         1        25
   85330         1        25
  148394         1        25
  292964         1        25
  249114         1        25
   12441         1        25
   32235         1        25
  269693         1        25
  282991         1        25
  535334         1        25
> rid49718
> rid49719
> rid49720
> rid49721
  990174         1        25
> rid49722
 1241184         1        25
> rid49723
> rid49724
> rid49725
> rid49726
 1159531         1        25
> rid49727
> rid49728
> rid49729
> rid49730
> rid49731
 1199674         1        25
> rid49732
> rid49733
  333915         1        25
> rid49734
> rid49735
> rid49736
 1206999         1        25
> rid49737
> rid49738
  784334         1        25
> rid49739
> rid49740
> rid49741
> rid49742
 1023740         1        25
> rid49743
> rid49744
> rid49745
> rid49746
> rid49747
> rid49748
  348016         1        25
> rid49749
> rid49750
> rid49751
> rid49752
 1285447         1        25
> rid49753
> rid49754
> rid49755
> rid49756
> rid49757
> rid49758
> rid49759
> rid49760
  212195         1        25
> rid49761
> rid49762
> rid49763
> rid49764
  727642         1        25
> rid49765
  420377         1        25
> rid49766
> rid49767
> rid49768
   83426         1        25
  247210         1        25
  267789         1        25
  281087         1        25
   30104         1        25
  291060         1        25
  533438         1        25
   10310         1        25
  146490         1        25
  742539         1        25
> rid49769
> rid49770
   72948         1        25
> rid49771
> rid49772
> rid49773
  763014         1        25
> rid49774
> rid49775
  852661         1        25
> rid49776
> rid49777
> rid49778
> rid49779
> rid49780
   86684         1        25
  745797         1        25
  149748         1        25
  294318         1        25
  250468         1        25
   13795         1        25
   33589         1        25
  536688         1        25
  271047         1        25
  284345         1        25
> rid49781
  423418         1        25
> rid49782
> rid49783
  557607         1        25
> rid49784
 1060621         1        25
> rid49785
   56705         1        25
> rid49786
> rid49787
> rid49788
> rid49789
> rid49790
> rid49791
 1269237         1        25
> rid49792
  327553         1        25
> rid49793
> rid49794
> rid49795
> rid49796
> rid49797
  958289         1        25
> rid49798
> rid49799
  366922         1        25
> rid49800
> rid49801
 1016424         1        25
> rid49802
> rid49803
> rid49804
  675439         1        25
> rid49805
 1264991         1        25
> rid49806
> rid49807
> rid49808
> rid49809
 1274384         1        25
> rid49810
  226417         1        25
> rid49811
> rid49812
> rid49813
> rid49814
  783930         1        25
> rid49815
> rid49816
> rid49817
> rid49818
> rid49819
> rid49820
  795734         1        25
> rid49821
  187458         1        25
> rid49822
> rid49823
   38562         1        25
> rid49824
 1237605         1        25
> rid49825
> rid49826
  912356         1        25
> rid49827
> rid49828
 1162180         1        25
> rid49829
  739296         1        25
> rid49830
  673984         1        25
> rid49831
  384109         1        25
> rid49832
> rid49833
> rid49834
> rid49835
> rid49836
> rid49837
  808773         1        25
> rid49838
 1222000         1        25
> rid49839
> rid49840
> rid49841
> rid49842
> rid49843
> rid49844
> rid49845
 1108920         1        25
> rid49846
> rid49847
> rid49848
> rid49849
> rid49850
> rid49851
> rid49852
> rid49853
  928112         1        25
> rid49854
> rid49855
> rid49856
> rid49857
> rid49858
> rid49859
   47857         1        25
> rid49860
> rid49861
> rid49862
> rid49863
> rid49864
> rid49865
> rid49866
> rid49867
> rid49868
 1091342         1        25
> rid49869
> rid49870
> rid49871
  365891         1        25
> rid49872
> rid49873
> rid49874
  829119         1        25
> rid49875
> rid49876
> rid49877
  709555         1        25
> rid49878
> rid49879
> rid49880
> rid49881
> rid49882
> rid49883
> rid49884
> rid49885
 1153317         1        25
> rid49886
> rid49887
  428275         1        25
> rid49888
> rid49889
> rid49890
  401698         1        25
> rid49891
> rid49892
> rid49893
  850658         1        25
> rid49894
  302007         1        25
> rid49895
> rid49896
 1011642         1        25
> rid49897
> rid49898
> rid49899
> rid49900
> rid49901
> rid49902
> rid49903
> rid49904
> rid49905
  901819         1        25
> rid49906
> rid49907
> rid49908
> rid49909
  378577         1        25
> rid49910
> rid49911
> rid49912
  743963         1        25
   84850         1        25
  147914         1        25
  292484         1        25
  248634         1        25
   11961         1        25
   31755         1        25
  269213         1        25
  282511         1        25
  534854         1        25
> rid49913
> rid49914
> rid49915
> rid49916
> rid49917
> rid49918
> rid49919
  876323         1        25
> rid49920
> rid49921
> rid49922
> rid49923
> rid49924
> rid49925
 1255680         1        25
> rid49926
> rid49927
> rid49928
> rid49929
> rid49930
> rid49931
> rid49932
  608754         1        25
> rid49933
> rid49934
> rid49935
> rid49936
 1279176         1        25
> rid49937
> rid49938
> rid49939
> rid49940
 1039543         1        25
> rid49941
> rid49942
> rid49943
> rid49944
> rid49945
> rid49946
  573104         1        25
> rid49947
 1281218         1        25
> rid49948
> rid49949
  239353         1        25
> rid49950
 1372039         1        25
> rid49951
> rid49952
> rid49953
> rid49954
> rid49955
> rid49956
 1291612         1        25
> rid49957
> rid49958
> rid49959
> rid49960
> rid49961
   86880         1        25
  745993         1        25
  149944         1        25
  294514         1        25
  250664         1        25
   13991         1        25
   33785         1        25
  536884         1        25
  271243         1        25
  284541         1        25
> rid49962
> rid49963
> rid49964
> rid49965
> rid49966
> rid49967
  725204         1        25
> rid49968
> rid49969
> rid49970
> rid49971
  796444         1        25
> rid49972
> rid49973
> rid49974
> rid49975
  776966         1        25
> rid49976
> rid49977
> rid49978
> rid49979
> rid49980
> rid49981
> rid49982
> rid49983
   69044         1        25
> rid49984
> rid49985
> rid49986
  421351         1        25
> rid49987
> rid49988
  176907         1        25
> rid49989
> rid49990
> rid49991
> rid49992
   95893         1        25
> rid49993
  163834         1        25
> rid49994
> rid49995
  879946         1        25
> rid49996
> rid49997
> rid49998
> rid49999
 1305989         1        25
> rid50000
GPGPU-Sim: exit_simulation called
GPGPU-Sim: simulation thread signaled exit
