

        *** GPGPU-Sim Simulator Version 3.2.2  [build 17315] ***


GPGPU-Sim PTX: simulation mode 0 (can change with PTX_SIM_MODE_FUNC environment variable:
               1=functional simulation only, 0=detailed performance simulator)
GPGPU-Sim: Configuration options:

-network_mode                           1 # Interconnection network mode
-inter_config_file   config_fermi_islip.icnt # Interconnection network config file
-gpgpu_ptx_use_cuobjdump                    1 # Use cuobjdump to extract ptx and sass from binaries
-gpgpu_experimental_lib_support                    0 # Try to extract code from cuda libraries [Broken because of unknown cudaGetExportTable]
-gpgpu_ptx_convert_to_ptxplus                    0 # Convert SASS (native ISA) to ptxplus and run ptxplus
-gpgpu_ptx_force_max_capability                   20 # Force maximum compute capability
-gpgpu_ptx_inst_debug_to_file                    0 # Dump executed instructions' debug information to file
-gpgpu_ptx_inst_debug_file       inst_debug.txt # Executed instructions' debug output file
-gpgpu_ptx_inst_debug_thread_uid                    1 # Thread UID for executed instructions' debug output
-gpgpu_simd_model                       1 # 1 = post-dominator
-gpgpu_shader_core_pipeline              1536:32 # shader core pipeline config, i.e., {<nthread>:<warpsize>}
-gpgpu_tex_cache:l1  4:128:24,L:R:m:N,F:128:4,128:2 # per-shader L1 texture cache  (READ-ONLY) config  {<nsets>:<bsize>:<assoc>,<rep>:<wr>:<alloc>:<wr_alloc>,<mshr>:<N>:<merge>,<mq>:<rf>}
-gpgpu_const_cache:l1 64:64:2,L:R:f:N,A:2:32,4 # per-shader L1 constant memory cache  (READ-ONLY) config  {<nsets>:<bsize>:<assoc>,<rep>:<wr>:<alloc>:<wr_alloc>,<mshr>:<N>:<merge>,<mq>} 
-gpgpu_cache:il1     4:128:4,L:R:f:N,A:2:32,4 # shader L1 instruction cache config  {<nsets>:<bsize>:<assoc>,<rep>:<wr>:<alloc>:<wr_alloc>,<mshr>:<N>:<merge>,<mq>} 
-gpgpu_cache:dl1     32:128:4,L:L:m:N,A:32:8,8 # per-shader L1 data cache config  {<nsets>:<bsize>:<assoc>,<rep>:<wr>:<alloc>:<wr_alloc>,<mshr>:<N>:<merge>,<mq> | none}
-gpgpu_cache:dl1PrefL1                 none # per-shader L1 data cache config  {<nsets>:<bsize>:<assoc>,<rep>:<wr>:<alloc>:<wr_alloc>,<mshr>:<N>:<merge>,<mq> | none}
-gpgpu_cache:dl1PreShared                 none # per-shader L1 data cache config  {<nsets>:<bsize>:<assoc>,<rep>:<wr>:<alloc>:<wr_alloc>,<mshr>:<N>:<merge>,<mq> | none}
-gmem_skip_L1D                          0 # global memory access skip L1D cache (implements -Xptxas -dlcm=cg, default=no skip)
-gpgpu_perfect_mem                      0 # enable perfect memory mode (no cache miss)
-n_regfile_gating_group                    4 # group of lanes that should be read/written together)
-gpgpu_clock_gated_reg_file                    0 # enable clock gated reg file for power calculations
-gpgpu_clock_gated_lanes                    0 # enable clock gated lanes for power calculations
-gpgpu_shader_registers                32768 # Number of registers per shader core. Limits number of concurrent CTAs. (default 8192)
-gpgpu_shader_cta                       8 # Maximum number of concurrent CTAs in shader (default 8)
-gpgpu_n_clusters                      15 # number of processing clusters
-gpgpu_n_cores_per_cluster                    1 # number of simd cores per cluster
-gpgpu_n_cluster_ejection_buffer_size                    8 # number of packets in ejection buffer
-gpgpu_n_ldst_response_buffer_size                    2 # number of response packets in ld/st unit ejection buffer
-gpgpu_shmem_size                   16384 # Size of shared memory per shader core (default 16kB)
-gpgpu_shmem_size                   49152 # Size of shared memory per shader core (default 16kB)
-gpgpu_shmem_size_PrefL1                16384 # Size of shared memory per shader core (default 16kB)
-gpgpu_shmem_size_PrefShared                16384 # Size of shared memory per shader core (default 16kB)
-gpgpu_shmem_num_banks                   32 # Number of banks in the shared memory in each shader core (default 16)
-gpgpu_shmem_limited_broadcast                    0 # Limit shared memory to do one broadcast per cycle (default on)
-gpgpu_shmem_warp_parts                    1 # Number of portions a warp is divided into for shared memory bank conflict check 
-gpgpu_warpdistro_shader                   -1 # Specify which shader core to collect the warp size distribution from
-gpgpu_warp_issue_shader                    0 # Specify which shader core to collect the warp issue distribution from
-gpgpu_local_mem_map                    1 # Mapping from local memory space address to simulated GPU physical address space (default = enabled)
-gpgpu_num_reg_banks                   16 # Number of register banks (default = 8)
-gpgpu_reg_bank_use_warp_id                    0 # Use warp ID in mapping registers to banks (default = off)
-gpgpu_operand_collector_num_units_sp                    6 # number of collector units (default = 4)
-gpgpu_operand_collector_num_units_sfu                    8 # number of collector units (default = 4)
-gpgpu_operand_collector_num_units_mem                    2 # number of collector units (default = 2)
-gpgpu_operand_collector_num_units_gen                    0 # number of collector units (default = 0)
-gpgpu_operand_collector_num_in_ports_sp                    2 # number of collector unit in ports (default = 1)
-gpgpu_operand_collector_num_in_ports_sfu                    1 # number of collector unit in ports (default = 1)
-gpgpu_operand_collector_num_in_ports_mem                    1 # number of collector unit in ports (default = 1)
-gpgpu_operand_collector_num_in_ports_gen                    0 # number of collector unit in ports (default = 0)
-gpgpu_operand_collector_num_out_ports_sp                    2 # number of collector unit in ports (default = 1)
-gpgpu_operand_collector_num_out_ports_sfu                    1 # number of collector unit in ports (default = 1)
-gpgpu_operand_collector_num_out_ports_mem                    1 # number of collector unit in ports (default = 1)
-gpgpu_operand_collector_num_out_ports_gen                    0 # number of collector unit in ports (default = 0)
-gpgpu_coalesce_arch                   13 # Coalescing arch (default = 13, anything else is off for now)
-gpgpu_num_sched_per_core                    2 # Number of warp schedulers per core
-gpgpu_max_insn_issue_per_warp                    1 # Max number of instructions that can be issued per warp in one cycle by scheduler
-gpgpu_simt_core_sim_order                    1 # Select the simulation order of cores in a cluster (0=Fix, 1=Round-Robin)
-gpgpu_pipeline_widths        2,1,1,2,1,1,2 # Pipeline widths ID_OC_SP,ID_OC_SFU,ID_OC_MEM,OC_EX_SP,OC_EX_SFU,OC_EX_MEM,EX_WB
-gpgpu_num_sp_units                     2 # Number of SP units (default=1)
-gpgpu_num_sfu_units                    1 # Number of SF units (default=1)
-gpgpu_num_mem_units                    1 # Number if ldst units (default=1) WARNING: not hooked up to anything
-gpgpu_scheduler                      gto # Scheduler configuration: < lrr | gto | two_level_active > If two_level_active:<num_active_warps>:<inner_prioritization>:<outer_prioritization>For complete list of prioritization values see shader.h enum scheduler_prioritization_typeDefault: gto
-gpgpu_dram_scheduler                    1 # 0 = fifo, 1 = FR-FCFS (defaul)
-gpgpu_dram_partition_queues              8:8:8:8 # i2$:$2d:d2$:$2i
-l2_ideal                               0 # Use a ideal L2 cache that always hit
-gpgpu_cache:dl2     64:128:8,L:B:m:W,A:32:4,4:0,32 # unified banked L2 data cache config  {<nsets>:<bsize>:<assoc>,<rep>:<wr>:<alloc>:<wr_alloc>,<mshr>:<N>:<merge>,<mq>}
-gpgpu_cache:dl2_texture_only                    0 # L2 cache used for texture only
-gpgpu_n_mem                            6 # number of memory modules (e.g. memory controllers) in gpu
-gpgpu_n_sub_partition_per_mchannel                    2 # number of memory subpartition in each memory module
-gpgpu_n_mem_per_ctrlr                    2 # number of memory chips per memory controller
-gpgpu_memlatency_stat                   14 # track and display latency statistics 0x2 enables MC, 0x4 enables queue logs
-gpgpu_frfcfs_dram_sched_queue_size                   16 # 0 = unlimited (default); # entries per chip
-gpgpu_dram_return_queue_size                  116 # 0 = unlimited (default); # entries per chip
-gpgpu_dram_buswidth                    4 # default = 4 bytes (8 bytes per cycle at DDR)
-gpgpu_dram_burst_length                    8 # Burst length of each DRAM request (default = 4 data bus cycle)
-dram_data_command_freq_ratio                    4 # Frequency ratio between DRAM data bus and command bus (default = 2 times, i.e. DDR)
-gpgpu_dram_timing_opt nbk=16:CCD=2:RRD=6:RCD=12:RAS=28:RP=12:RC=40: CL=12:WL=4:CDLR=5:WR=12:nbkgrp=4:CCDL=3:RTPL=2 # DRAM timing parameters = {nbk:tCCD:tRRD:tRCD:tRAS:tRP:tRC:CL:WL:tCDLR:tWR:nbkgrp:tCCDL:tRTPL}
-rop_latency                          120 # ROP queue latency (default 85)
-dram_latency                         100 # DRAM latency (default 30)
-gpgpu_mem_addr_mapping dramid@8;00000000.00000000.00000000.00000000.0000RRRR.RRRRRRRR.BBBCCCCB.CCSSSSSS # mapping memory address to dram model {dramid@<start bit>;<memory address map>}
-gpgpu_mem_addr_test                    0 # run sweep test to check address mapping for aliased address
-gpgpu_mem_address_mask                    1 # 0 = old addressing mask, 1 = new addressing mask, 2 = new add. mask + flipped bank sel and chip sel bits
-gpuwattch_xml_file  gpuwattch_gtx480.xml # GPUWattch XML file
-power_simulation_enabled                    1 # Turn on power simulator (1=On, 0=Off)
-power_per_cycle_dump                    0 # Dump detailed power output each cycle
-power_trace_enabled                    0 # produce a file for the power trace (1=On, 0=Off)
-power_trace_zlevel                     6 # Compression level of the power trace output log (0=no comp, 9=highest)
-steady_power_levels_enabled                    0 # produce a file for the steady power levels (1=On, 0=Off)
-steady_state_definition                  8:4 # allowed deviation:number of samples
-gpgpu_max_cycle                        0 # terminates gpu simulation early (0 = no limit)
-gpgpu_max_insn                         0 # terminates gpu simulation early (0 = no limit)
-gpgpu_max_cta                          0 # terminates gpu simulation early (0 = no limit)
-gpgpu_runtime_stat                   500 # display runtime statistics such as dram utilization {<freq>:<flag>}
-liveness_message_freq                    1 # Minimum number of seconds between simulation liveness messages (0 = always print)
-gpgpu_flush_l1_cache                    0 # Flush L1 cache at the end of each kernel call
-gpgpu_flush_l2_cache                    0 # Flush L2 cache at the end of each kernel call
-gpgpu_deadlock_detect                    1 # Stop the simulation at deadlock (1=on (default), 0=off)
-gpgpu_ptx_instruction_classification                    0 # if enabled will classify ptx instruction types per kernel (Max 255 kernels now)
-gpgpu_ptx_sim_mode                     0 # Select between Performance (default) or Functional simulation (1)
-gpgpu_clock_domains 700.0:700.0:700.0:924.0 # Clock Domain Frequencies in MhZ {<Core Clock>:<ICNT Clock>:<L2 Clock>:<DRAM Clock>}
-gpgpu_max_concurrent_kernel                    8 # maximum kernels that can run concurrently on GPU
-gpgpu_cflog_interval                    0 # Interval between each snapshot in control flow logger
-visualizer_enabled                     0 # Turn on visualizer output (1=On, 0=Off)
-visualizer_outputfile                 NULL # Specifies the output log file for visualizer
-visualizer_zlevel                      6 # Compression level of the visualizer output log (0=no comp, 9=highest)
-trace_enabled                          0 # Turn on traces
-trace_components                    none # comma seperated list of traces to enable. Complete list found in trace_streams.tup. Default none
-trace_sampling_core                    0 # The core which is printed using CORE_DPRINTF. Default 0
-trace_sampling_memory_partition                   -1 # The memory partition which is printed using MEMPART_DPRINTF. Default -1 (i.e. all)
-enable_ptx_file_line_stats                    1 # Turn on PTX source line statistic profiling. (1 = On)
-ptx_line_stats_filename gpgpu_inst_stats.txt # Output file for PTX source line statistics.
-save_embedded_ptx                      0 # saves ptx files embedded in binary as <n>.ptx
-keep                                   0 # keep intermediate files created by GPGPU-Sim when interfacing with external programs
-gpgpu_ptx_save_converted_ptxplus                    0 # Saved converted ptxplus to a file
-ptx_opcode_latency_int         4,13,4,5,145 # Opcode latencies for integers <ADD,MAX,MUL,MAD,DIV>Default 1,1,19,25,145
-ptx_opcode_latency_fp          4,13,4,5,39 # Opcode latencies for single precision floating points <ADD,MAX,MUL,MAD,DIV>Default 1,1,1,1,30
-ptx_opcode_latency_dp         8,19,8,8,330 # Opcode latencies for double precision floating points <ADD,MAX,MUL,MAD,DIV>Default 8,8,8,8,335
-ptx_opcode_initiation_int            1,2,2,1,8 # Opcode initiation intervals for integers <ADD,MAX,MUL,MAD,DIV>Default 1,1,4,4,32
-ptx_opcode_initiation_fp            1,2,1,1,4 # Opcode initiation intervals for single precision floating points <ADD,MAX,MUL,MAD,DIV>Default 1,1,1,1,5
-ptx_opcode_initiation_dp         8,16,8,8,130 # Opcode initiation intervals for double precision floating points <ADD,MAX,MUL,MAD,DIV>Default 8,8,8,8,130
DRAM Timing Options:
nbk                                    16 # number of banks
CCD                                     2 # column to column delay
RRD                                     6 # minimal delay between activation of rows in different banks
RCD                                    12 # row to column delay
RAS                                    28 # time needed to activate row
RP                                     12 # time needed to precharge (deactivate) row
RC                                     40 # row cycle time
CDLR                                    5 # switching from write to read (changes tWTR)
WR                                     12 # last data-in to row precharge
CL                                     12 # CAS latency
WL                                      4 # Write latency
nbkgrp                                  4 # number of bank groups
CCDL                                    3 # column to column delay between accesses to different bank groups
RTPL                                    2 # read to precharge delay between accesses to different bank groups
Total number of memory sub partition = 12
addr_dec_mask[CHIP]  = 0000000000000000 	high:64 low:0
addr_dec_mask[BK]    = 000000000000e100 	high:16 low:8
addr_dec_mask[ROW]   = 000000000fff0000 	high:28 low:16
addr_dec_mask[COL]   = 0000000000001eff 	high:13 low:0
addr_dec_mask[BURST] = 000000000000003f 	high:6 low:0
sub_partition_id_mask = 0000000000000100
GPGPU-Sim uArch: clock freqs: 700000000.000000:700000000.000000:700000000.000000:924000000.000000
GPGPU-Sim uArch: clock periods: 0.00000000142857142857:0.00000000142857142857:0.00000000142857142857:0.00000000108225108225
*** Initializing Memory Statistics ***
GPGPU-Sim uArch: interconnect node map (shaderID+MemID to icntID)
GPGPU-Sim uArch: Memory nodes ID start from index: 15
GPGPU-Sim uArch:    0   1   2   3   4
GPGPU-Sim uArch:    5   6   7   8   9
GPGPU-Sim uArch:   10  11  12  13  14
GPGPU-Sim uArch:   15  16  17  18  19
GPGPU-Sim uArch:   20  21  22  23  24
GPGPU-Sim uArch:   25  26
GPGPU-Sim uArch: interconnect node reverse map (icntID to shaderID+MemID)
GPGPU-Sim uArch: Memory nodes start from ID: 15
GPGPU-Sim uArch:    0   1   2   3   4
GPGPU-Sim uArch:    5   6   7   8   9
GPGPU-Sim uArch:   10  11  12  13  14
GPGPU-Sim uArch:   15  16  17  18  19
GPGPU-Sim uArch:   20  21  22  23  24
GPGPU-Sim uArch:   25  26
9b74b8268624be0d8924fda6da66b754  /home/jaineshdoshi/Documents/GPGPU-sim/gpgpu-sim/ispass2009-benchmarks/bin/release/LIB
GPGPU-Sim uArch: performance model initialization complete.
GPGPU-Sim PTX: __cudaRegisterFatBinary, fat_cubin_handle = 1, filename=libor.cu
self exe links to: /home/jaineshdoshi/Documents/GPGPU-sim/gpgpu-sim/ispass2009-benchmarks/bin/release/LIB
Running md5sum using "md5sum /home/jaineshdoshi/Documents/GPGPU-sim/gpgpu-sim/ispass2009-benchmarks/bin/release/LIB "
Running cuobjdump using "$CUDA_INSTALL_PATH/bin/cuobjdump -ptx -elf -sass /home/jaineshdoshi/Documents/GPGPU-sim/gpgpu-sim/ispass2009-benchmarks/bin/release/LIB > _cuobjdump_complete_output_7dPrnA"
Parsing file _cuobjdump_complete_output_7dPrnA
######### cuobjdump parser ########
## Adding new section PTX
Adding ptx filename: _cuobjdump_1.ptx
Adding arch: sm_30
Adding identifier: libor.cu
## Adding new section ELF
Adding arch: sm_30
Adding identifier: libor.cu
## Adding new section ELF
Adding arch: sm_20
Adding identifier: libor.cu
## Adding new section PTX
Adding ptx filename: _cuobjdump_2.ptx
Adding arch: sm_20
Adding identifier: libor.cu
## Adding new section ELF
Adding arch: sm_10
Adding identifier: libor.cu
## Adding new section PTX
Adding ptx filename: _cuobjdump_3.ptx
Adding arch: sm_10
Adding identifier: libor.cu
Done parsing!!!
GPGPU-Sim PTX: __cudaRegisterFunction _Z29Pathcalc_Portfolio_KernelGPU2Pf : hostFun 0x0x403b90, fat_cubin_handle = 1
GPGPU-Sim PTX: allocating constant region for "N" from 0x100 to 0x104 (global memory space) 1
GPGPU-Sim PTX: allocating constant region for "Nmat" from 0x104 to 0x108 (global memory space) 2
GPGPU-Sim PTX: allocating constant region for "Nopt" from 0x108 to 0x10c (global memory space) 3
GPGPU-Sim PTX: allocating constant region for "maturities" from 0x180 to 0x1bc (global memory space) 4
GPGPU-Sim PTX: allocating constant region for "delta" from 0x1bc to 0x1c0 (global memory space) 5
GPGPU-Sim PTX: allocating constant region for "swaprates" from 0x200 to 0x23c (global memory space) 6
GPGPU-Sim PTX: allocating constant region for "lambda" from 0x280 to 0x3c0 (global memory space) 7
GPGPU-Sim PTX: allocating stack frame region for .param "_Z9path_calcPfS__param_0" from 0x0 to 0x8
GPGPU-Sim PTX: allocating stack frame region for .param "_Z9path_calcPfS__param_1" from 0x8 to 0x10
GPGPU-Sim PTX: instruction assembly for function '_Z9path_calcPfS_'...   done.
GPGPU-Sim PTX: finding reconvergence points for '_Z9path_calcPfS_'...
GPGPU-Sim PTX: Finding dominators for '_Z9path_calcPfS_'...
GPGPU-Sim PTX: Finding immediate dominators for '_Z9path_calcPfS_'...
GPGPU-Sim PTX: Finding postdominators for '_Z9path_calcPfS_'...
GPGPU-Sim PTX: Finding immediate postdominators for '_Z9path_calcPfS_'...
GPGPU-Sim PTX: pre-decoding instructions for '_Z9path_calcPfS_'...
GPGPU-Sim PTX: reconvergence points for _Z9path_calcPfS_...
GPGPU-Sim PTX:  1 (potential) branch divergence @  PC=0x010 (_1.ptx:39) @%p1 bra BB0_6;
GPGPU-Sim PTX:    immediate post dominator      @  PC=0x1b0 (_1.ptx:123) ret;
GPGPU-Sim PTX:  2 (potential) branch divergence @  PC=0x078 (_1.ptx:61) @%p2 bra BB0_5;
GPGPU-Sim PTX:    immediate post dominator      @  PC=0x190 (_1.ptx:115) ld.const.u32 %r15, [Nmat];
GPGPU-Sim PTX:  3 (potential) branch divergence @  PC=0x188 (_1.ptx:111) @%p3 bra BB0_7;
GPGPU-Sim PTX:    immediate post dominator      @  PC=0x190 (_1.ptx:115) ld.const.u32 %r15, [Nmat];
GPGPU-Sim PTX:  4 (potential) branch divergence @  PC=0x1a8 (_1.ptx:119) @%p4 bra BB0_2;
GPGPU-Sim PTX:    immediate post dominator      @  PC=0x1b0 (_1.ptx:123) ret;
GPGPU-Sim PTX:  5 (potential) branch divergence @  PC=0x1c8 (_1.ptx:128) bra.uni BB0_4;
GPGPU-Sim PTX:    immediate post dominator      @  PC=0x0a0 (_1.ptx:70) mov.f32 %f3, %f21;
GPGPU-Sim PTX: ... end of reconvergence points for _Z9path_calcPfS_
GPGPU-Sim PTX: ... done pre-decoding instructions for '_Z9path_calcPfS_'.
GPGPU-Sim PTX: allocating stack frame region for .param "_Z12path_calc_b1PfS_S__param_0" from 0x0 to 0x8
GPGPU-Sim PTX: allocating stack frame region for .param "_Z12path_calc_b1PfS_S__param_1" from 0x8 to 0x10
GPGPU-Sim PTX: allocating stack frame region for .param "_Z12path_calc_b1PfS_S__param_2" from 0x10 to 0x18
GPGPU-Sim PTX: instruction assembly for function '_Z12path_calc_b1PfS_S_'...   done.
GPGPU-Sim PTX: finding reconvergence points for '_Z12path_calc_b1PfS_S_'...
GPGPU-Sim PTX: Finding dominators for '_Z12path_calc_b1PfS_S_'...
GPGPU-Sim PTX: Finding immediate dominators for '_Z12path_calc_b1PfS_S_'...
GPGPU-Sim PTX: Finding postdominators for '_Z12path_calc_b1PfS_S_'...
GPGPU-Sim PTX: Finding immediate postdominators for '_Z12path_calc_b1PfS_S_'...
GPGPU-Sim PTX: pre-decoding instructions for '_Z12path_calc_b1PfS_S_'...
GPGPU-Sim PTX: reconvergence points for _Z12path_calc_b1PfS_S_...
GPGPU-Sim PTX:  1 (potential) branch divergence @  PC=0x1e0 (_1.ptx:147) @%p1 bra BB1_1;
GPGPU-Sim PTX:    immediate post dominator      @  PC=0x250 (_1.ptx:174) ld.const.u32 %r17, [Nmat];
GPGPU-Sim PTX:  2 (potential) branch divergence @  PC=0x1e8 (_1.ptx:148) bra.uni BB1_3;
GPGPU-Sim PTX:    immediate post dominator      @  PC=0x250 (_1.ptx:174) ld.const.u32 %r17, [Nmat];
GPGPU-Sim PTX:  3 (potential) branch divergence @  PC=0x248 (_1.ptx:170) @%p2 bra BB1_2;
GPGPU-Sim PTX:    immediate post dominator      @  PC=0x250 (_1.ptx:174) ld.const.u32 %r17, [Nmat];
GPGPU-Sim PTX:  4 (potential) branch divergence @  PC=0x260 (_1.ptx:176) @%p3 bra BB1_9;
GPGPU-Sim PTX:    immediate post dominator      @  PC=0x428 (_1.ptx:266) ret;
GPGPU-Sim PTX:  5 (potential) branch divergence @  PC=0x2c0 (_1.ptx:196) @%p4 bra BB1_6;
GPGPU-Sim PTX:    immediate post dominator      @  PC=0x408 (_1.ptx:258) ld.const.u32 %r26, [Nmat];
GPGPU-Sim PTX:  6 (potential) branch divergence @  PC=0x2c8 (_1.ptx:197) bra.uni BB1_8;
GPGPU-Sim PTX:    immediate post dominator      @  PC=0x408 (_1.ptx:258) ld.const.u32 %r26, [Nmat];
GPGPU-Sim PTX:  7 (potential) branch divergence @  PC=0x400 (_1.ptx:254) @%p5 bra BB1_10;
GPGPU-Sim PTX:    immediate post dominator      @  PC=0x408 (_1.ptx:258) ld.const.u32 %r26, [Nmat];
GPGPU-Sim PTX:  8 (potential) branch divergence @  PC=0x420 (_1.ptx:262) @%p6 bra BB1_5;
GPGPU-Sim PTX:    immediate post dominator      @  PC=0x428 (_1.ptx:266) ret;
GPGPU-Sim PTX:  9 (potential) branch divergence @  PC=0x440 (_1.ptx:271) bra.uni BB1_7;
GPGPU-Sim PTX:    immediate post dominator      @  PC=0x2f0 (_1.ptx:207) mov.f32 %f3, %f22;
GPGPU-Sim PTX: ... end of reconvergence points for _Z12path_calc_b1PfS_S_
GPGPU-Sim PTX: ... done pre-decoding instructions for '_Z12path_calc_b1PfS_S_'.
GPGPU-Sim PTX: allocating stack frame region for .param "_Z12path_calc_b2PfS_S__param_0" from 0x0 to 0x8
GPGPU-Sim PTX: allocating stack frame region for .param "_Z12path_calc_b2PfS_S__param_1" from 0x8 to 0x10
GPGPU-Sim PTX: allocating stack frame region for .param "_Z12path_calc_b2PfS_S__param_2" from 0x10 to 0x18
GPGPU-Sim PTX: instruction assembly for function '_Z12path_calc_b2PfS_S_'...   done.
GPGPU-Sim PTX: finding reconvergence points for '_Z12path_calc_b2PfS_S_'...
GPGPU-Sim PTX: Finding dominators for '_Z12path_calc_b2PfS_S_'...
GPGPU-Sim PTX: Finding immediate dominators for '_Z12path_calc_b2PfS_S_'...
GPGPU-Sim PTX: Finding postdominators for '_Z12path_calc_b2PfS_S_'...
GPGPU-Sim PTX: Finding immediate postdominators for '_Z12path_calc_b2PfS_S_'...
GPGPU-Sim PTX: pre-decoding instructions for '_Z12path_calc_b2PfS_S_'...
GPGPU-Sim PTX: reconvergence points for _Z12path_calc_b2PfS_S_...
GPGPU-Sim PTX:  1 (potential) branch divergence @  PC=0x460 (_1.ptx:291) @%p1 bra BB2_6;
GPGPU-Sim PTX:    immediate post dominator      @  PC=0x608 (_1.ptx:365) ret;
GPGPU-Sim PTX:  2 (potential) branch divergence @  PC=0x4d0 (_1.ptx:310) @%p2 bra BB2_5;
GPGPU-Sim PTX:    immediate post dominator      @  PC=0x5e8 (_1.ptx:357) add.s32 %r25, %r25, -1;
GPGPU-Sim PTX:  3 (potential) branch divergence @  PC=0x5e0 (_1.ptx:354) @%p3 bra BB2_7;
GPGPU-Sim PTX:    immediate post dominator      @  PC=0x5e8 (_1.ptx:357) add.s32 %r25, %r25, -1;
GPGPU-Sim PTX:  4 (potential) branch divergence @  PC=0x600 (_1.ptx:361) @%p4 bra BB2_2;
GPGPU-Sim PTX:    immediate post dominator      @  PC=0x608 (_1.ptx:365) ret;
GPGPU-Sim PTX:  5 (potential) branch divergence @  PC=0x640 (_1.ptx:374) bra.uni BB2_4;
GPGPU-Sim PTX:    immediate post dominator      @  PC=0x500 (_1.ptx:319) mov.u32 %r6, %r28;
GPGPU-Sim PTX: ... end of reconvergence points for _Z12path_calc_b2PfS_S_
GPGPU-Sim PTX: ... done pre-decoding instructions for '_Z12path_calc_b2PfS_S_'.
GPGPU-Sim PTX: allocating stack frame region for .param "func_retval0" from 0x0 to 0x4
GPGPU-Sim PTX: allocating stack frame region for .param "_Z11portfolio_bPfS__param_0" from 0x4 to 0xc
GPGPU-Sim PTX: allocating stack frame region for .param "_Z11portfolio_bPfS__param_1" from 0xc to 0x14
GPGPU-Sim PTX: allocating stack frame region for .local "__local_depot3" from 0x80 to 0x300
GPGPU-Sim PTX: instruction assembly for function '_Z11portfolio_bPfS_'...   done.
GPGPU-Sim PTX: finding reconvergence points for '_Z11portfolio_bPfS_'...
GPGPU-Sim PTX: Finding dominators for '_Z11portfolio_bPfS_'...
GPGPU-Sim PTX: Finding immediate dominators for '_Z11portfolio_bPfS_'...
GPGPU-Sim PTX: Finding postdominators for '_Z11portfolio_bPfS_'...
GPGPU-Sim PTX: Finding immediate postdominators for '_Z11portfolio_bPfS_'...
GPGPU-Sim PTX: pre-decoding instructions for '_Z11portfolio_bPfS_'...
GPGPU-Sim PTX: reconvergence points for _Z11portfolio_bPfS_...
GPGPU-Sim PTX:  1 (potential) branch divergence @  PC=0x678 (_1.ptx:398) @%p3 bra BB3_6;
GPGPU-Sim PTX:    immediate post dominator      @  PC=0x7a8 (_1.ptx:460) ld.const.u32 %r8, [Nopt];
GPGPU-Sim PTX:  2 (potential) branch divergence @  PC=0x730 (_1.ptx:432) @%p4 bra BB3_2;
GPGPU-Sim PTX:    immediate post dominator      @  PC=0x738 (_1.ptx:435) @!%p1 bra BB3_6;
GPGPU-Sim PTX:  3 (potential) branch divergence @  PC=0x738 (_1.ptx:435) @!%p1 bra BB3_6;
GPGPU-Sim PTX:    immediate post dominator      @  PC=0x7a8 (_1.ptx:460) ld.const.u32 %r8, [Nopt];
GPGPU-Sim PTX:  4 (potential) branch divergence @  PC=0x7a0 (_1.ptx:456) @%p5 bra BB3_5;
GPGPU-Sim PTX:    immediate post dominator      @  PC=0x7a8 (_1.ptx:460) ld.const.u32 %r8, [Nopt];
GPGPU-Sim PTX:  5 (potential) branch divergence @  PC=0x7b8 (_1.ptx:462) @%p6 bra BB3_8;
GPGPU-Sim PTX:    immediate post dominator      @  PC=0x8f8 (_1.ptx:522) add.s32 %r45, %r76, -1;
GPGPU-Sim PTX:  6 (potential) branch divergence @  PC=0x7c8 (_1.ptx:465) bra.uni BB3_12;
GPGPU-Sim PTX:    immediate post dominator      @  PC=0x8f8 (_1.ptx:522) add.s32 %r45, %r76, -1;
GPGPU-Sim PTX:  7 (potential) branch divergence @  PC=0x860 (_1.ptx:492) @%p7 bra BB3_10;
GPGPU-Sim PTX:    immediate post dominator      @  PC=0x8d0 (_1.ptx:513) add.s64 %rl72, %rl72, 4;
GPGPU-Sim PTX:  8 (potential) branch divergence @  PC=0x868 (_1.ptx:493) bra.uni BB3_11;
GPGPU-Sim PTX:    immediate post dominator      @  PC=0x8d0 (_1.ptx:513) add.s64 %rl72, %rl72, 4;
GPGPU-Sim PTX:  9 (potential) branch divergence @  PC=0x8f0 (_1.ptx:519) @%p8 bra BB3_9;
GPGPU-Sim PTX:    immediate post dominator      @  PC=0x8f8 (_1.ptx:522) add.s32 %r45, %r76, -1;
GPGPU-Sim PTX: 10 (potential) branch divergence @  PC=0x908 (_1.ptx:524) @%p9 bra BB3_13;
GPGPU-Sim PTX:    immediate post dominator      @  PC=0xae8 (_1.ptx:610) mov.u32 %r84, %r85;
GPGPU-Sim PTX: 11 (potential) branch divergence @  PC=0x910 (_1.ptx:525) bra.uni BB3_18;
GPGPU-Sim PTX:    immediate post dominator      @  PC=0xae8 (_1.ptx:610) mov.u32 %r84, %r85;
GPGPU-Sim PTX: 12 (potential) branch divergence @  PC=0xa30 (_1.ptx:576) @%p10 bra BB3_16;
GPGPU-Sim PTX:    immediate post dominator      @  PC=0xaa8 (_1.ptx:598) ld.const.u32 %r14, [Nmat];
GPGPU-Sim PTX: 13 (potential) branch divergence @  PC=0xad8 (_1.ptx:605) @%p11 bra BB3_14;
GPGPU-Sim PTX:    immediate post dominator      @  PC=0xae0 (_1.ptx:607) mov.u32 %r85, %r14;
GPGPU-Sim PTX: 14 (potential) branch divergence @  PC=0xaf8 (_1.ptx:613) @%p2 bra BB3_20;
GPGPU-Sim PTX:    immediate post dominator      @  PC=0xb88 (_1.ptx:645) mul.f32 %f18, %f64, %f63;
GPGPU-Sim PTX: 15 (potential) branch divergence @  PC=0xb08 (_1.ptx:616) bra.uni BB3_22;
GPGPU-Sim PTX:    immediate post dominator      @  PC=0xb88 (_1.ptx:645) mul.f32 %f18, %f64, %f63;
GPGPU-Sim PTX: 16 (potential) branch divergence @  PC=0xb80 (_1.ptx:641) @%p12 bra BB3_21;
GPGPU-Sim PTX:    immediate post dominator      @  PC=0xb88 (_1.ptx:645) mul.f32 %f18, %f64, %f63;
GPGPU-Sim PTX: 17 (potential) branch divergence @  PC=0xb90 (_1.ptx:646) @%p2 bra BB3_23;
GPGPU-Sim PTX:    immediate post dominator      @  PC=0xc48 (_1.ptx:684) mov.u32 %r83, %r84;
GPGPU-Sim PTX: 18 (potential) branch divergence @  PC=0xb98 (_1.ptx:647) bra.uni BB3_25;
GPGPU-Sim PTX:    immediate post dominator      @  PC=0xc48 (_1.ptx:684) mov.u32 %r83, %r84;
GPGPU-Sim PTX: 19 (potential) branch divergence @  PC=0xc40 (_1.ptx:681) @%p13 bra BB3_24;
GPGPU-Sim PTX:    immediate post dominator      @  PC=0xc48 (_1.ptx:684) mov.u32 %r83, %r84;
GPGPU-Sim PTX: 20 (potential) branch divergence @  PC=0xc60 (_1.ptx:688) @%p14 bra BB3_27;
GPGPU-Sim PTX:    immediate post dominator      @  PC=0xcb8 (_1.ptx:709) st.param.f32[func_retval0+0], %f18;
GPGPU-Sim PTX: 21 (potential) branch divergence @  PC=0xcb0 (_1.ptx:705) @%p15 bra BB3_26;
GPGPU-Sim PTX:    immediate post dominator      @  PC=0xcb8 (_1.ptx:709) st.param.f32[func_retval0+0], %f18;
GPGPU-Sim PTX: ... end of reconvergence points for _Z11portfolio_bPfS_
GPGPU-Sim PTX: ... done pre-decoding instructions for '_Z11portfolio_bPfS_'.
GPGPU-Sim PTX: allocating stack frame region for .param "func_retval0" from 0x0 to 0x4
GPGPU-Sim PTX: allocating stack frame region for .param "_Z9portfolioPf_param_0" from 0x4 to 0xc
GPGPU-Sim PTX: allocating stack frame region for .local "__local_depot4" from 0x80 to 0x1c0
GPGPU-Sim PTX: instruction assembly for function '_Z9portfolioPf'...   done.
GPGPU-Sim PTX: finding reconvergence points for '_Z9portfolioPf'...
GPGPU-Sim PTX: Finding dominators for '_Z9portfolioPf'...
GPGPU-Sim PTX: Finding immediate dominators for '_Z9portfolioPf'...
GPGPU-Sim PTX: Finding postdominators for '_Z9portfolioPf'...
GPGPU-Sim PTX: Finding immediate postdominators for '_Z9portfolioPf'...
GPGPU-Sim PTX: pre-decoding instructions for '_Z9portfolioPf'...
GPGPU-Sim PTX: reconvergence points for _Z9portfolioPf...
GPGPU-Sim PTX:  1 (potential) branch divergence @  PC=0xce8 (_1.ptx:731) @%p1 bra BB4_3;
GPGPU-Sim PTX:    immediate post dominator      @  PC=0xdd8 (_1.ptx:777) ld.const.u32 %r5, [Nopt];
GPGPU-Sim PTX:  2 (potential) branch divergence @  PC=0xdd0 (_1.ptx:773) @%p2 bra BB4_2;
GPGPU-Sim PTX:    immediate post dominator      @  PC=0xdd8 (_1.ptx:777) ld.const.u32 %r5, [Nopt];
GPGPU-Sim PTX:  3 (potential) branch divergence @  PC=0xde8 (_1.ptx:779) @%p3 bra BB4_5;
GPGPU-Sim PTX:    immediate post dominator      @  PC=0xee0 (_1.ptx:828) setp.gt.s32 %p6, %r2, 0;
GPGPU-Sim PTX:  4 (potential) branch divergence @  PC=0xdf8 (_1.ptx:782) bra.uni BB4_9;
GPGPU-Sim PTX:    immediate post dominator      @  PC=0xee0 (_1.ptx:828) setp.gt.s32 %p6, %r2, 0;
GPGPU-Sim PTX:  5 (potential) branch divergence @  PC=0xe88 (_1.ptx:807) @%p4 bra BB4_7;
GPGPU-Sim PTX:    immediate post dominator      @  PC=0xeb8 (_1.ptx:818) add.s64 %rl29, %rl29, 4;
GPGPU-Sim PTX:  6 (potential) branch divergence @  PC=0xe90 (_1.ptx:808) bra.uni BB4_8;
GPGPU-Sim PTX:    immediate post dominator      @  PC=0xeb8 (_1.ptx:818) add.s64 %rl29, %rl29, 4;
GPGPU-Sim PTX:  7 (potential) branch divergence @  PC=0xed8 (_1.ptx:824) @%p5 bra BB4_6;
GPGPU-Sim PTX:    immediate post dominator      @  PC=0xee0 (_1.ptx:828) setp.gt.s32 %p6, %r2, 0;
GPGPU-Sim PTX:  8 (potential) branch divergence @  PC=0xee8 (_1.ptx:829) @%p6 bra BB4_11;
GPGPU-Sim PTX:    immediate post dominator      @  PC=0xf78 (_1.ptx:861) mul.f32 %f27, %f30, %f29;
GPGPU-Sim PTX:  9 (potential) branch divergence @  PC=0xef8 (_1.ptx:832) bra.uni BB4_13;
GPGPU-Sim PTX:    immediate post dominator      @  PC=0xf78 (_1.ptx:861) mul.f32 %f27, %f30, %f29;
GPGPU-Sim PTX: 10 (potential) branch divergence @  PC=0xf70 (_1.ptx:857) @%p7 bra BB4_12;
GPGPU-Sim PTX:    immediate post dominator      @  PC=0xf78 (_1.ptx:861) mul.f32 %f27, %f30, %f29;
GPGPU-Sim PTX: ... end of reconvergence points for _Z9portfolioPf
GPGPU-Sim PTX: ... done pre-decoding instructions for '_Z9portfolioPf'.
GPGPU-Sim PTX: allocating stack frame region for .local "__local_depot5" from 0x0 to 0x3840
GPGPU-Sim PTX: instruction assembly for function '_Z28Pathcalc_Portfolio_KernelGPUPfS_'...   done.
GPGPU-Sim PTX: finding reconvergence points for '_Z28Pathcalc_Portfolio_KernelGPUPfS_'...
GPGPU-Sim PTX: Finding dominators for '_Z28Pathcalc_Portfolio_KernelGPUPfS_'...
GPGPU-Sim PTX: Finding immediate dominators for '_Z28Pathcalc_Portfolio_KernelGPUPfS_'...
GPGPU-Sim PTX: Finding postdominators for '_Z28Pathcalc_Portfolio_KernelGPUPfS_'...
GPGPU-Sim PTX: Finding immediate postdominators for '_Z28Pathcalc_Portfolio_KernelGPUPfS_'...
GPGPU-Sim PTX: pre-decoding instructions for '_Z28Pathcalc_Portfolio_KernelGPUPfS_'...
GPGPU-Sim PTX: reconvergence points for _Z28Pathcalc_Portfolio_KernelGPUPfS_...
GPGPU-Sim PTX:  1 (potential) branch divergence @  PC=0xfc0 (_1.ptx:889) @%p3 bra BB5_48;
GPGPU-Sim PTX:    immediate post dominator      @  PC=0x1ab0 (_1.ptx:1427) ret;
GPGPU-Sim PTX:  2 (potential) branch divergence @  PC=0x1010 (_1.ptx:907) @%p4 bra BB5_5;
GPGPU-Sim PTX:    immediate post dominator      @  PC=0x1078 (_1.ptx:930) @%p4 bra BB5_8;
GPGPU-Sim PTX:  3 (potential) branch divergence @  PC=0x1070 (_1.ptx:926) @%p5 bra BB5_4;
GPGPU-Sim PTX:    immediate post dominator      @  PC=0x1078 (_1.ptx:930) @%p4 bra BB5_8;
GPGPU-Sim PTX:  4 (potential) branch divergence @  PC=0x1078 (_1.ptx:930) @%p4 bra BB5_8;
GPGPU-Sim PTX:    immediate post dominator      @  PC=0x10d0 (_1.ptx:950) setp.lt.s32 %p8, %r3, 1;
GPGPU-Sim PTX:  5 (potential) branch divergence @  PC=0x10c8 (_1.ptx:946) @%p7 bra BB5_7;
GPGPU-Sim PTX:    immediate post dominator      @  PC=0x10d0 (_1.ptx:950) setp.lt.s32 %p8, %r3, 1;
GPGPU-Sim PTX:  6 (potential) branch divergence @  PC=0x10d8 (_1.ptx:951) @%p8 bra BB5_14;
GPGPU-Sim PTX:    immediate post dominator      @  PC=0x12d8 (_1.ptx:1043) sub.s32 %r142, %r2, %r3;
GPGPU-Sim PTX:  7 (potential) branch divergence @  PC=0x1178 (_1.ptx:977) @%p9 bra BB5_13;
GPGPU-Sim PTX:    immediate post dominator      @  PC=0x12b0 (_1.ptx:1034) setp.lt.s32 %p11, %r14, %r3;
GPGPU-Sim PTX:  8 (potential) branch divergence @  PC=0x12a8 (_1.ptx:1030) @%p10 bra BB5_12;
GPGPU-Sim PTX:    immediate post dominator      @  PC=0x12b0 (_1.ptx:1034) setp.lt.s32 %p11, %r14, %r3;
GPGPU-Sim PTX:  9 (potential) branch divergence @  PC=0x12d0 (_1.ptx:1039) @%p11 bra BB5_10;
GPGPU-Sim PTX:    immediate post dominator      @  PC=0x12d8 (_1.ptx:1043) sub.s32 %r142, %r2, %r3;
GPGPU-Sim PTX: 10 (potential) branch divergence @  PC=0x12f0 (_1.ptx:1046) @%p12 bra BB5_17;
GPGPU-Sim PTX:    immediate post dominator      @  PC=0x13b0 (_1.ptx:1084) @!%p1 bra BB5_20;
GPGPU-Sim PTX: 11 (potential) branch divergence @  PC=0x13a8 (_1.ptx:1080) @%p13 bra BB5_16;
GPGPU-Sim PTX:    immediate post dominator      @  PC=0x13b0 (_1.ptx:1084) @!%p1 bra BB5_20;
GPGPU-Sim PTX: 12 (potential) branch divergence @  PC=0x13b0 (_1.ptx:1084) @!%p1 bra BB5_20;
GPGPU-Sim PTX:    immediate post dominator      @  PC=0x1428 (_1.ptx:1111) setp.gt.s32 %p15, %r4, 0;
GPGPU-Sim PTX: 13 (potential) branch divergence @  PC=0x1420 (_1.ptx:1107) @%p14 bra BB5_19;
GPGPU-Sim PTX:    immediate post dominator      @  PC=0x1428 (_1.ptx:1111) setp.gt.s32 %p15, %r4, 0;
GPGPU-Sim PTX: 14 (potential) branch divergence @  PC=0x1430 (_1.ptx:1112) @%p15 bra BB5_22;
GPGPU-Sim PTX:    immediate post dominator      @  PC=0x1570 (_1.ptx:1172) add.s32 %r96, %r142, -1;
GPGPU-Sim PTX: 15 (potential) branch divergence @  PC=0x1440 (_1.ptx:1115) bra.uni BB5_26;
GPGPU-Sim PTX:    immediate post dominator      @  PC=0x1570 (_1.ptx:1172) add.s32 %r96, %r142, -1;
GPGPU-Sim PTX: 16 (potential) branch divergence @  PC=0x14d8 (_1.ptx:1142) @%p16 bra BB5_24;
GPGPU-Sim PTX:    immediate post dominator      @  PC=0x1548 (_1.ptx:1163) add.s64 %rl141, %rl141, 4;
GPGPU-Sim PTX: 17 (potential) branch divergence @  PC=0x14e0 (_1.ptx:1143) bra.uni BB5_25;
GPGPU-Sim PTX:    immediate post dominator      @  PC=0x1548 (_1.ptx:1163) add.s64 %rl141, %rl141, 4;
GPGPU-Sim PTX: 18 (potential) branch divergence @  PC=0x1568 (_1.ptx:1169) @%p17 bra BB5_23;
GPGPU-Sim PTX:    immediate post dominator      @  PC=0x1570 (_1.ptx:1172) add.s32 %r96, %r142, -1;
GPGPU-Sim PTX: 19 (potential) branch divergence @  PC=0x1580 (_1.ptx:1175) @%p18 bra BB5_31;
GPGPU-Sim PTX:    immediate post dominator      @  PC=0x16f8 (_1.ptx:1243) setp.gt.s32 %p2, %r3, 0;
GPGPU-Sim PTX: 20 (potential) branch divergence @  PC=0x1668 (_1.ptx:1215) @%p19 bra BB5_30;
GPGPU-Sim PTX:    immediate post dominator      @  PC=0x16d0 (_1.ptx:1234) add.s32 %r111, %r28, -2;
GPGPU-Sim PTX: 21 (potential) branch divergence @  PC=0x16f0 (_1.ptx:1239) @%p20 bra BB5_28;
GPGPU-Sim PTX:    immediate post dominator      @  PC=0x16f8 (_1.ptx:1243) setp.gt.s32 %p2, %r3, 0;
GPGPU-Sim PTX: 22 (potential) branch divergence @  PC=0x1700 (_1.ptx:1245) @%p2 bra BB5_33;
GPGPU-Sim PTX:    immediate post dominator      @  PC=0x1788 (_1.ptx:1275) mul.f32 %f22, %f94, %f93;
GPGPU-Sim PTX: 23 (potential) branch divergence @  PC=0x1710 (_1.ptx:1248) bra.uni BB5_35;
GPGPU-Sim PTX:    immediate post dominator      @  PC=0x1788 (_1.ptx:1275) mul.f32 %f22, %f94, %f93;
GPGPU-Sim PTX: 24 (potential) branch divergence @  PC=0x1780 (_1.ptx:1271) @%p21 bra BB5_34;
GPGPU-Sim PTX:    immediate post dominator      @  PC=0x1788 (_1.ptx:1275) mul.f32 %f22, %f94, %f93;
GPGPU-Sim PTX: 25 (potential) branch divergence @  PC=0x1790 (_1.ptx:1277) @!%p2 bra BB5_38;
GPGPU-Sim PTX:    immediate post dominator      @  PC=0x1818 (_1.ptx:1306) setp.ge.s32 %p23, %r3, %r2;
GPGPU-Sim PTX: 26 (potential) branch divergence @  PC=0x1810 (_1.ptx:1302) @%p22 bra BB5_37;
GPGPU-Sim PTX:    immediate post dominator      @  PC=0x1818 (_1.ptx:1306) setp.ge.s32 %p23, %r3, %r2;
GPGPU-Sim PTX: 27 (potential) branch divergence @  PC=0x1820 (_1.ptx:1307) @%p23 bra BB5_41;
GPGPU-Sim PTX:    immediate post dominator      @  PC=0x1890 (_1.ptx:1330) ld.param.u64 %rl130, [_Z28Pathcalc_Portfolio_KernelGPUPfS__param_0];
GPGPU-Sim PTX: 28 (potential) branch divergence @  PC=0x1888 (_1.ptx:1327) @%p24 bra BB5_40;
GPGPU-Sim PTX:    immediate post dominator      @  PC=0x1890 (_1.ptx:1330) ld.param.u64 %rl130, [_Z28Pathcalc_Portfolio_KernelGPUPfS__param_0];
GPGPU-Sim PTX: 29 (potential) branch divergence @  PC=0x18c8 (_1.ptx:1339) @%p25 bra BB5_47;
GPGPU-Sim PTX:    immediate post dominator      @  PC=0x1a60 (_1.ptx:1410) ld.param.u64 %rl131, [_Z28Pathcalc_Portfolio_KernelGPUPfS__param_1];
GPGPU-Sim PTX: 30 (potential) branch divergence @  PC=0x1900 (_1.ptx:1350) @%p26 bra BB5_46;
GPGPU-Sim PTX:    immediate post dominator      @  PC=0x1a30 (_1.ptx:1401) add.s32 %r149, %r149, -1;
GPGPU-Sim PTX: 31 (potential) branch divergence @  PC=0x1a28 (_1.ptx:1398) @%p27 bra BB5_45;
GPGPU-Sim PTX:    immediate post dominator      @  PC=0x1a30 (_1.ptx:1401) add.s32 %r149, %r149, -1;
GPGPU-Sim PTX: 32 (potential) branch divergence @  PC=0x1a58 (_1.ptx:1407) @%p28 bra BB5_43;
GPGPU-Sim PTX:    immediate post dominator      @  PC=0x1a60 (_1.ptx:1410) ld.param.u64 %rl131, [_Z28Pathcalc_Portfolio_KernelGPUPfS__param_1];
GPGPU-Sim PTX: 33 (potential) branch divergence @  PC=0x1aa8 (_1.ptx:1423) @%p29 bra BB5_2;
GPGPU-Sim PTX:    immediate post dominator      @  PC=0x1ab0 (_1.ptx:1427) ret;
GPGPU-Sim PTX: ... end of reconvergence points for _Z28Pathcalc_Portfolio_KernelGPUPfS_
GPGPU-Sim PTX: ... done pre-decoding instructions for '_Z28Pathcalc_Portfolio_KernelGPUPfS_'.
GPGPU-Sim PTX: allocating stack frame region for .local "__local_depot6" from 0x0 to 0x3c0
GPGPU-Sim PTX: instruction assembly for function '_Z29Pathcalc_Portfolio_KernelGPU2Pf'...   done.
GPGPU-Sim PTX: finding reconvergence points for '_Z29Pathcalc_Portfolio_KernelGPU2Pf'...
GPGPU-Sim PTX: Finding dominators for '_Z29Pathcalc_Portfolio_KernelGPU2Pf'...
GPGPU-Sim PTX: Finding immediate dominators for '_Z29Pathcalc_Portfolio_KernelGPU2Pf'...
GPGPU-Sim PTX: Finding postdominators for '_Z29Pathcalc_Portfolio_KernelGPU2Pf'...
GPGPU-Sim PTX: Finding immediate postdominators for '_Z29Pathcalc_Portfolio_KernelGPU2Pf'...
GPGPU-Sim PTX: pre-decoding instructions for '_Z29Pathcalc_Portfolio_KernelGPU2Pf'...
GPGPU-Sim PTX: reconvergence points for _Z29Pathcalc_Portfolio_KernelGPU2Pf...
GPGPU-Sim PTX:  1 (potential) branch divergence @  PC=0x1ae8 (_1.ptx:1451) @%p1 bra BB6_25;
GPGPU-Sim PTX:    immediate post dominator      @  PC=0x2000 (_1.ptx:1714) ret;
GPGPU-Sim PTX:  2 (potential) branch divergence @  PC=0x1b18 (_1.ptx:1465) @%p2 bra BB6_5;
GPGPU-Sim PTX:    immediate post dominator      @  PC=0x1b80 (_1.ptx:1488) setp.lt.s32 %p4, %r3, 1;
GPGPU-Sim PTX:  3 (potential) branch divergence @  PC=0x1b78 (_1.ptx:1484) @%p3 bra BB6_4;
GPGPU-Sim PTX:    immediate post dominator      @  PC=0x1b80 (_1.ptx:1488) setp.lt.s32 %p4, %r3, 1;
GPGPU-Sim PTX:  4 (potential) branch divergence @  PC=0x1b88 (_1.ptx:1489) @%p4 bra BB6_11;
GPGPU-Sim PTX:    immediate post dominator      @  PC=0x1d30 (_1.ptx:1569) setp.ge.s32 %p8, %r3, %r2;
GPGPU-Sim PTX:  5 (potential) branch divergence @  PC=0x1c18 (_1.ptx:1513) @%p5 bra BB6_10;
GPGPU-Sim PTX:    immediate post dominator      @  PC=0x1d10 (_1.ptx:1561) setp.lt.s32 %p7, %r61, %r3;
GPGPU-Sim PTX:  6 (potential) branch divergence @  PC=0x1d08 (_1.ptx:1557) @%p6 bra BB6_9;
GPGPU-Sim PTX:    immediate post dominator      @  PC=0x1d10 (_1.ptx:1561) setp.lt.s32 %p7, %r61, %r3;
GPGPU-Sim PTX:  7 (potential) branch divergence @  PC=0x1d28 (_1.ptx:1565) @%p7 bra BB6_7;
GPGPU-Sim PTX:    immediate post dominator      @  PC=0x1d30 (_1.ptx:1569) setp.ge.s32 %p8, %r3, %r2;
GPGPU-Sim PTX:  8 (potential) branch divergence @  PC=0x1d38 (_1.ptx:1570) @%p8 bra BB6_14;
GPGPU-Sim PTX:    immediate post dominator      @  PC=0x1e20 (_1.ptx:1614) setp.gt.s32 %p10, %r4, 0;
GPGPU-Sim PTX:  9 (potential) branch divergence @  PC=0x1e18 (_1.ptx:1610) @%p9 bra BB6_13;
GPGPU-Sim PTX:    immediate post dominator      @  PC=0x1e20 (_1.ptx:1614) setp.gt.s32 %p10, %r4, 0;
GPGPU-Sim PTX: 10 (potential) branch divergence @  PC=0x1e28 (_1.ptx:1615) @%p10 bra BB6_16;
GPGPU-Sim PTX:    immediate post dominator      @  PC=0x1f20 (_1.ptx:1664) setp.gt.s32 %p13, %r3, 0;
GPGPU-Sim PTX: 11 (potential) branch divergence @  PC=0x1e38 (_1.ptx:1618) bra.uni BB6_20;
GPGPU-Sim PTX:    immediate post dominator      @  PC=0x1f20 (_1.ptx:1664) setp.gt.s32 %p13, %r3, 0;
GPGPU-Sim PTX: 12 (potential) branch divergence @  PC=0x1ec8 (_1.ptx:1643) @%p11 bra BB6_18;
GPGPU-Sim PTX:    immediate post dominator      @  PC=0x1ef8 (_1.ptx:1654) add.s64 %rl60, %rl60, 4;
GPGPU-Sim PTX: 13 (potential) branch divergence @  PC=0x1ed0 (_1.ptx:1644) bra.uni BB6_19;
GPGPU-Sim PTX:    immediate post dominator      @  PC=0x1ef8 (_1.ptx:1654) add.s64 %rl60, %rl60, 4;
GPGPU-Sim PTX: 14 (potential) branch divergence @  PC=0x1f18 (_1.ptx:1660) @%p12 bra BB6_17;
GPGPU-Sim PTX:    immediate post dominator      @  PC=0x1f20 (_1.ptx:1664) setp.gt.s32 %p13, %r3, 0;
GPGPU-Sim PTX: 15 (potential) branch divergence @  PC=0x1f28 (_1.ptx:1666) @%p13 bra BB6_22;
GPGPU-Sim PTX:    immediate post dominator      @  PC=0x1fb0 (_1.ptx:1695) ld.param.u64 %rl53, [_Z29Pathcalc_Portfolio_KernelGPU2Pf_param_0];
GPGPU-Sim PTX: 16 (potential) branch divergence @  PC=0x1f38 (_1.ptx:1669) bra.uni BB6_24;
GPGPU-Sim PTX:    immediate post dominator      @  PC=0x1fb0 (_1.ptx:1695) ld.param.u64 %rl53, [_Z29Pathcalc_Portfolio_KernelGPU2Pf_param_0];
GPGPU-Sim PTX: 17 (potential) branch divergence @  PC=0x1fa8 (_1.ptx:1692) @%p14 bra BB6_23;
GPGPU-Sim PTX:    immediate post dominator      @  PC=0x1fb0 (_1.ptx:1695) ld.param.u64 %rl53, [_Z29Pathcalc_Portfolio_KernelGPU2Pf_param_0];
GPGPU-Sim PTX: 18 (potential) branch divergence @  PC=0x1ff8 (_1.ptx:1710) @%p15 bra BB6_2;
GPGPU-Sim PTX:    immediate post dominator      @  PC=0x2000 (_1.ptx:1714) ret;
GPGPU-Sim PTX: ... end of reconvergence points for _Z29Pathcalc_Portfolio_KernelGPU2Pf
GPGPU-Sim PTX: ... done pre-decoding instructions for '_Z29Pathcalc_Portfolio_KernelGPU2Pf'.
GPGPU-Sim PTX: finished parsing EMBEDDED .ptx file _1.ptx
Adding _cuobjdump_2.ptx with cubin handle 1
GPGPU-Sim PTX: extracting embedded .ptx to temporary file "_ptx_pMfWzc"
Running: cat _ptx_pMfWzc | sed 's/.version 1.5/.version 1.4/' | sed 's/, texmode_independent//' | sed 's/\(\.extern \.const\[1\] .b8 \w\+\)\[\]/\1\[1\]/' | sed 's/const\[.\]/const\[0\]/g' > _ptx2_10SsMO
GPGPU-Sim PTX: generating ptxinfo using "$CUDA_INSTALL_PATH/bin/ptxas --gpu-name=sm_20 -v _ptx2_10SsMO --output-file  /dev/null 2> _ptx_pMfWzcinfo"
GPGPU-Sim PTX: Kernel '_Z28Pathcalc_Portfolio_KernelGPUPfS_' : regs=29, lmem=0, smem=0, cmem=524
GPGPU-Sim PTX: Kernel '_Z29Pathcalc_Portfolio_KernelGPU2Pf' : regs=24, lmem=0, smem=0, cmem=516
GPGPU-Sim PTX: removing ptxinfo using "rm -f _ptx_pMfWzc _ptx2_10SsMO _ptx_pMfWzcinfo"
GPGPU-Sim PTX: loading globals with explicit initializers... 
GPGPU-Sim PTX: finished loading globals (0 bytes total).
GPGPU-Sim PTX: loading constants with explicit initializers...  done.
GPGPU-Sim PTX: __cudaRegisterFunction _Z28Pathcalc_Portfolio_KernelGPUPfS_ : hostFun 0x0x403c00, fat_cubin_handle = 1
GPGPU-Sim PTX: __cudaRegisterVar: hostVar = 0x635408; deviceAddress = N; deviceName = N
GPGPU-Sim PTX: __cudaRegisterVar: Registering const memory space of 4 bytes
GPGPU-Sim PTX registering constant N (4 bytes) to name mapping
GPGPU-Sim PTX: __cudaRegisterVar: hostVar = 0x63540c; deviceAddress = Nmat; deviceName = Nmat
GPGPU-Sim PTX: __cudaRegisterVar: Registering const memory space of 4 bytes
GPGPU-Sim PTX registering constant Nmat (4 bytes) to name mapping
GPGPU-Sim PTX: __cudaRegisterVar: hostVar = 0x635410; deviceAddress = Nopt; deviceName = Nopt
GPGPU-Sim PTX: __cudaRegisterVar: Registering const memory space of 4 bytes
GPGPU-Sim PTX registering constant Nopt (4 bytes) to name mapping
GPGPU-Sim PTX: __cudaRegisterVar: hostVar = 0x635420; deviceAddress = maturities; deviceName = maturities
GPGPU-Sim PTX: __cudaRegisterVar: Registering const memory space of 60 bytes
GPGPU-Sim PTX registering constant maturities (60 bytes) to name mapping
GPGPU-Sim PTX: __cudaRegisterVar: hostVar = 0x63545c; deviceAddress = delta; deviceName = delta
GPGPU-Sim PTX: __cudaRegisterVar: Registering const memory space of 4 bytes
GPGPU-Sim PTX registering constant delta (4 bytes) to name mapping
GPGPU-Sim PTX: __cudaRegisterVar: hostVar = 0x635460; deviceAddress = swaprates; deviceName = swaprates
GPGPU-Sim PTX: __cudaRegisterVar: Registering const memory space of 60 bytes
GPGPU-Sim PTX registering constant swaprates (60 bytes) to name mapping
GPGPU-Sim PTX: __cudaRegisterVar: hostVar = 0x6354a0; deviceAddress = lambda; deviceName = lambda
GPGPU-Sim PTX: __cudaRegisterVar: Registering const memory space of 320 bytes
GPGPU-Sim PTX registering constant lambda (320 bytes) to name mapping
GPGPU-Sim PTX: cudaMemcpyToSymbol: symbol = 0x635408
GPGPU-Sim PTX: starting gpgpu_ptx_sim_memcpy_symbol with hostVar 0x0x635408
GPGPU-Sim PTX: gpgpu_ptx_sim_memcpy_symbol: Found PTX symbol w/ hostVar=0x635408
GPGPU-Sim PTX: gpgpu_ptx_sim_memcpy_symbol: copying const memory 4 bytes  to  symbol N+0 @0x100 ...
GPGPU-Sim PTX: cudaMemcpyToSymbol: symbol = 0x63540c
GPGPU-Sim PTX: starting gpgpu_ptx_sim_memcpy_symbol with hostVar 0x0x63540c
GPGPU-Sim PTX: gpgpu_ptx_sim_memcpy_symbol: Found PTX symbol w/ hostVar=0x63540c
GPGPU-Sim PTX: gpgpu_ptx_sim_memcpy_symbol: copying const memory 4 bytes  to  symbol Nmat+0 @0x104 ...
GPGPU-Sim PTX: cudaMemcpyToSymbol: symbol = 0x635410
GPGPU-Sim PTX: starting gpgpu_ptx_sim_memcpy_symbol with hostVar 0x0x635410
GPGPU-Sim PTX: gpgpu_ptx_sim_memcpy_symbol: Found PTX symbol w/ hostVar=0x635410
GPGPU-Sim PTX: gpgpu_ptx_sim_memcpy_symbol: copying const memory 4 bytes  to  symbol Nopt+0 @0x108 ...
GPGPU-Sim PTX: cudaMemcpyToSymbol: symbol = 0x63545c
GPGPU-Sim PTX: starting gpgpu_ptx_sim_memcpy_symbol with hostVar 0x0x63545c
GPGPU-Sim PTX: gpgpu_ptx_sim_memcpy_symbol: Found PTX symbol w/ hostVar=0x63545c
GPGPU-Sim PTX: gpgpu_ptx_sim_memcpy_symbol: copying const memory 4 bytes  to  symbol delta+0 @0x1bc ...
GPGPU-Sim PTX: cudaMemcpyToSymbol: symbol = 0x635420
GPGPU-Sim PTX: starting gpgpu_ptx_sim_memcpy_symbol with hostVar 0x0x635420
GPGPU-Sim PTX: gpgpu_ptx_sim_memcpy_symbol: Found PTX symbol w/ hostVar=0x635420
GPGPU-Sim PTX: gpgpu_ptx_sim_memcpy_symbol: copying const memory 60 bytes  to  symbol maturities+0 @0x180 ...
GPGPU-Sim PTX: cudaMemcpyToSymbol: symbol = 0x635460
GPGPU-Sim PTX: starting gpgpu_ptx_sim_memcpy_symbol with hostVar 0x0x635460
GPGPU-Sim PTX: gpgpu_ptx_sim_memcpy_symbol: Found PTX symbol w/ hostVar=0x635460
GPGPU-Sim PTX: gpgpu_ptx_sim_memcpy_symbol: copying const memory 60 bytes  to  symbol swaprates+0 @0x200 ...
GPGPU-Sim PTX: cudaMemcpyToSymbol: symbol = 0x6354a0
GPGPU-Sim PTX: starting gpgpu_ptx_sim_memcpy_symbol with hostVar 0x0x6354a0
GPGPU-Sim PTX: gpgpu_ptx_sim_memcpy_symbol: Found PTX symbol w/ hostVar=0x6354a0
GPGPU-Sim PTX: gpgpu_ptx_sim_memcpy_symbol: copying const memory 320 bytes  to  symbol lambda+0 @0x280 ...
GPGPU-Sim: synchronize waiting for inactive GPU simulation
GPGPU-Sim API: Stream Manager State
GPGPU-Sim: detected inactive GPU simulation thread

GPGPU-Sim PTX: cudaLaunch for 0x0x403b90 (mode=performance simulation) on stream 0
GPGPU-Sim PTX: pushing kernel '_Z29Pathcalc_Portfolio_KernelGPU2Pf' to stream 0, gridDim= (64,1,1) blockDim = (64,1,1) 
kernel '_Z29Pathcalc_Portfolio_KernelGPU2Pf' transfer to GPU hardware scheduler
GPGPU-Sim uArch: Shader 1 bind to kernel 1 '_Z29Pathcalc_Portfolio_KernelGPU2Pf'
GPGPU-Sim uArch: CTA/core = 8, limited by: cta_limit
GPGPU-Sim uArch: core:  1, cta: 0 initialized @(1,0)
GPGPU-Sim uArch: Shader 2 bind to kernel 1 '_Z29Pathcalc_Portfolio_KernelGPU2Pf'
GPGPU-Sim uArch: core:  2, cta: 0 initialized @(1,0)
GPGPU-Sim uArch: Shader 3 bind to kernel 1 '_Z29Pathcalc_Portfolio_KernelGPU2Pf'
GPGPU-Sim uArch: core:  3, cta: 0 initialized @(1,0)
GPGPU-Sim uArch: Shader 4 bind to kernel 1 '_Z29Pathcalc_Portfolio_KernelGPU2Pf'
GPGPU-Sim uArch: core:  4, cta: 0 initialized @(1,0)
GPGPU-Sim uArch: Shader 5 bind to kernel 1 '_Z29Pathcalc_Portfolio_KernelGPU2Pf'
GPGPU-Sim uArch: core:  5, cta: 0 initialized @(1,0)
GPGPU-Sim uArch: Shader 6 bind to kernel 1 '_Z29Pathcalc_Portfolio_KernelGPU2Pf'
GPGPU-Sim uArch: core:  6, cta: 0 initialized @(1,0)
GPGPU-Sim uArch: Shader 7 bind to kernel 1 '_Z29Pathcalc_Portfolio_KernelGPU2Pf'
GPGPU-Sim uArch: core:  7, cta: 0 initialized @(1,0)
GPGPU-Sim uArch: Shader 8 bind to kernel 1 '_Z29Pathcalc_Portfolio_KernelGPU2Pf'
GPGPU-Sim uArch: core:  8, cta: 0 initialized @(1,0)
GPGPU-Sim uArch: Shader 9 bind to kernel 1 '_Z29Pathcalc_Portfolio_KernelGPU2Pf'
GPGPU-Sim uArch: core:  9, cta: 0 initialized @(1,0)
GPGPU-Sim uArch: Shader 10 bind to kernel 1 '_Z29Pathcalc_Portfolio_KernelGPU2Pf'
GPGPU-Sim uArch: core: 10, cta: 0 initialized @(1,0)
GPGPU-Sim uArch: Shader 11 bind to kernel 1 '_Z29Pathcalc_Portfolio_KernelGPU2Pf'
GPGPU-Sim uArch: core: 11, cta: 0 initialized @(1,0)
GPGPU-Sim uArch: Shader 12 bind to kernel 1 '_Z29Pathcalc_Portfolio_KernelGPU2Pf'
GPGPU-Sim uArch: core: 12, cta: 0 initialized @(1,0)
GPGPU-Sim uArch: Shader 13 bind to kernel 1 '_Z29Pathcalc_Portfolio_KernelGPU2Pf'
GPGPU-Sim uArch: core: 13, cta: 0 initialized @(1,0)
GPGPU-Sim uArch: Shader 14 bind to kernel 1 '_Z29Pathcalc_Portfolio_KernelGPU2Pf'
GPGPU-Sim uArch: core: 14, cta: 0 initialized @(1,0)
GPGPU-Sim uArch: Shader 0 bind to kernel 1 '_Z29Pathcalc_Portfolio_KernelGPU2Pf'
GPGPU-Sim uArch: core:  0, cta: 0 initialized @(1,0)
GPGPU-Sim uArch: core:  1, cta: 1 initialized @(2,0)
GPGPU-Sim uArch: core:  2, cta: 1 initialized @(2,0)
GPGPU-Sim uArch: core:  3, cta: 1 initialized @(2,0)
GPGPU-Sim uArch: core:  4, cta: 1 initialized @(2,0)
GPGPU-Sim uArch: core:  5, cta: 1 initialized @(2,0)
GPGPU-Sim uArch: core:  6, cta: 1 initialized @(2,0)
GPGPU-Sim uArch: core:  7, cta: 1 initialized @(2,0)
GPGPU-Sim uArch: core:  8, cta: 1 initialized @(2,0)
GPGPU-Sim uArch: core:  9, cta: 1 initialized @(2,0)
GPGPU-Sim uArch: core: 10, cta: 1 initialized @(2,0)
GPGPU-Sim uArch: core: 11, cta: 1 initialized @(2,0)
GPGPU-Sim uArch: core: 12, cta: 1 initialized @(2,0)
GPGPU-Sim uArch: core: 13, cta: 1 initialized @(2,0)
GPGPU-Sim uArch: core: 14, cta: 1 initialized @(2,0)
GPGPU-Sim uArch: core:  0, cta: 1 initialized @(2,0)
GPGPU-Sim uArch: core:  1, cta: 2 initialized @(3,0)
GPGPU-Sim uArch: core:  2, cta: 2 initialized @(3,0)
GPGPU-Sim uArch: core:  3, cta: 2 initialized @(3,0)
GPGPU-Sim uArch: core:  4, cta: 2 initialized @(3,0)
GPGPU-Sim uArch: core:  5, cta: 2 initialized @(3,0)
GPGPU-Sim uArch: core:  6, cta: 2 initialized @(3,0)
GPGPU-Sim uArch: core:  7, cta: 2 initialized @(3,0)
GPGPU-Sim uArch: core:  8, cta: 2 initialized @(3,0)
GPGPU-Sim uArch: core:  9, cta: 2 initialized @(3,0)
GPGPU-Sim uArch: core: 10, cta: 2 initialized @(3,0)
GPGPU-Sim uArch: core: 11, cta: 2 initialized @(3,0)
GPGPU-Sim uArch: core: 12, cta: 2 initialized @(3,0)
GPGPU-Sim uArch: core: 13, cta: 2 initialized @(3,0)
GPGPU-Sim uArch: core: 14, cta: 2 initialized @(3,0)
GPGPU-Sim uArch: core:  0, cta: 2 initialized @(3,0)
GPGPU-Sim uArch: core:  1, cta: 3 initialized @(4,0)
GPGPU-Sim uArch: core:  2, cta: 3 initialized @(4,0)
GPGPU-Sim uArch: core:  3, cta: 3 initialized @(4,0)
GPGPU-Sim uArch: core:  4, cta: 3 initialized @(4,0)
GPGPU-Sim uArch: core:  5, cta: 3 initialized @(4,0)
GPGPU-Sim uArch: core:  6, cta: 3 initialized @(4,0)
GPGPU-Sim uArch: core:  7, cta: 3 initialized @(4,0)
GPGPU-Sim uArch: core:  8, cta: 3 initialized @(4,0)
GPGPU-Sim uArch: core:  9, cta: 3 initialized @(4,0)
GPGPU-Sim uArch: core: 10, cta: 3 initialized @(4,0)
GPGPU-Sim uArch: core: 11, cta: 3 initialized @(4,0)
GPGPU-Sim uArch: core: 12, cta: 3 initialized @(4,0)
GPGPU-Sim uArch: core: 13, cta: 3 initialized @(4,0)
GPGPU-Sim uArch: core: 14, cta: 3 initialized @(4,0)
GPGPU-Sim uArch: core:  0, cta: 3 initialized @(4,0)
GPGPU-Sim uArch: core:  1, cta: 4 initialized @(5,0)
GPGPU-Sim uArch: core:  2, cta: 4 initialized @(5,0)
GPGPU-Sim uArch: core:  3, cta: 4 initialized @(5,0)
GPGPU-Sim uArch: core:  4, cta: 4 initialized @(5,0)
GPGPU-Sim uArch: cycles simulated: 500  inst.: 24576 (ipc=49.2) sim_rate=12288 (inst/sec) elapsed = 0:0:00:02 / Mon Jun  6 05:56:54 2016
GPGPU-Sim PTX: 100000 instructions simulated : ctaid=(1,0,0) tid=(31,0,0)
GPGPU-Sim uArch: cycles simulated: 1000  inst.: 156320 (ipc=156.3) sim_rate=52106 (inst/sec) elapsed = 0:0:00:03 / Mon Jun  6 05:56:55 2016
GPGPU-Sim PTX: 200000 instructions simulated : ctaid=(10,0,0) tid=(31,0,0)
GPGPU-Sim uArch: cycles simulated: 1500  inst.: 194240 (ipc=129.5) sim_rate=38848 (inst/sec) elapsed = 0:0:00:05 / Mon Jun  6 05:56:57 2016
GPGPU-Sim uArch: cycles simulated: 2000  inst.: 230464 (ipc=115.2) sim_rate=38410 (inst/sec) elapsed = 0:0:00:06 / Mon Jun  6 05:56:58 2016
GPGPU-Sim uArch: cycles simulated: 2500  inst.: 265792 (ipc=106.3) sim_rate=33224 (inst/sec) elapsed = 0:0:00:08 / Mon Jun  6 05:57:00 2016
GPGPU-Sim PTX: 300000 instructions simulated : ctaid=(48,0,0) tid=(31,0,0)
GPGPU-Sim uArch: cycles simulated: 3000  inst.: 306752 (ipc=102.3) sim_rate=34083 (inst/sec) elapsed = 0:0:00:09 / Mon Jun  6 05:57:01 2016
GPGPU-Sim uArch: cycles simulated: 3500  inst.: 358176 (ipc=102.3) sim_rate=32561 (inst/sec) elapsed = 0:0:00:11 / Mon Jun  6 05:57:03 2016
GPGPU-Sim PTX: 400000 instructions simulated : ctaid=(38,0,0) tid=(31,0,0)
GPGPU-Sim uArch: cycles simulated: 4000  inst.: 404960 (ipc=101.2) sim_rate=33746 (inst/sec) elapsed = 0:0:00:12 / Mon Jun  6 05:57:04 2016
GPGPU-Sim uArch: cycles simulated: 4500  inst.: 452320 (ipc=100.5) sim_rate=32308 (inst/sec) elapsed = 0:0:00:14 / Mon Jun  6 05:57:06 2016
GPGPU-Sim PTX: 500000 instructions simulated : ctaid=(29,0,0) tid=(31,0,0)
GPGPU-Sim uArch: cycles simulated: 5000  inst.: 502080 (ipc=100.4) sim_rate=33472 (inst/sec) elapsed = 0:0:00:15 / Mon Jun  6 05:57:07 2016
GPGPU-Sim uArch: cycles simulated: 5500  inst.: 545984 (ipc=99.3) sim_rate=32116 (inst/sec) elapsed = 0:0:00:17 / Mon Jun  6 05:57:09 2016
GPGPU-Sim PTX: 600000 instructions simulated : ctaid=(27,0,0) tid=(31,0,0)
GPGPU-Sim uArch: cycles simulated: 6000  inst.: 597120 (ipc=99.5) sim_rate=33173 (inst/sec) elapsed = 0:0:00:18 / Mon Jun  6 05:57:10 2016
GPGPU-Sim uArch: cycles simulated: 6500  inst.: 652832 (ipc=100.4) sim_rate=32641 (inst/sec) elapsed = 0:0:00:20 / Mon Jun  6 05:57:12 2016
GPGPU-Sim PTX: 700000 instructions simulated : ctaid=(17,0,0) tid=(31,0,0)
GPGPU-Sim uArch: cycles simulated: 7000  inst.: 707232 (ipc=101.0) sim_rate=33677 (inst/sec) elapsed = 0:0:00:21 / Mon Jun  6 05:57:13 2016
GPGPU-Sim uArch: cycles simulated: 7500  inst.: 761920 (ipc=101.6) sim_rate=33126 (inst/sec) elapsed = 0:0:00:23 / Mon Jun  6 05:57:15 2016
GPGPU-Sim PTX: 800000 instructions simulated : ctaid=(0,0,0) tid=(31,0,0)
GPGPU-Sim uArch: cycles simulated: 8000  inst.: 805568 (ipc=100.7) sim_rate=33565 (inst/sec) elapsed = 0:0:00:24 / Mon Jun  6 05:57:16 2016
GPGPU-Sim uArch: cycles simulated: 8500  inst.: 850112 (ipc=100.0) sim_rate=32696 (inst/sec) elapsed = 0:0:00:26 / Mon Jun  6 05:57:18 2016
GPGPU-Sim PTX: 900000 instructions simulated : ctaid=(25,0,0) tid=(31,0,0)
GPGPU-Sim uArch: cycles simulated: 9000  inst.: 894656 (ipc=99.4) sim_rate=33135 (inst/sec) elapsed = 0:0:00:27 / Mon Jun  6 05:57:19 2016
GPGPU-Sim uArch: cycles simulated: 9500  inst.: 939776 (ipc=98.9) sim_rate=33563 (inst/sec) elapsed = 0:0:00:28 / Mon Jun  6 05:57:20 2016
GPGPU-Sim PTX: 1000000 instructions simulated : ctaid=(8,0,0) tid=(31,0,0)
GPGPU-Sim uArch: cycles simulated: 10000  inst.: 996032 (ipc=99.6) sim_rate=33201 (inst/sec) elapsed = 0:0:00:30 / Mon Jun  6 05:57:22 2016
GPGPU-Sim uArch: cycles simulated: 10500  inst.: 1048576 (ipc=99.9) sim_rate=33825 (inst/sec) elapsed = 0:0:00:31 / Mon Jun  6 05:57:23 2016
GPGPU-Sim PTX: 1100000 instructions simulated : ctaid=(49,0,0) tid=(31,0,0)
GPGPU-Sim uArch: cycles simulated: 11000  inst.: 1095584 (ipc=99.6) sim_rate=33199 (inst/sec) elapsed = 0:0:00:33 / Mon Jun  6 05:57:25 2016
GPGPU-Sim uArch: cycles simulated: 11500  inst.: 1153184 (ipc=100.3) sim_rate=32948 (inst/sec) elapsed = 0:0:00:35 / Mon Jun  6 05:57:27 2016
GPGPU-Sim PTX: 1200000 instructions simulated : ctaid=(33,0,0) tid=(31,0,0)
GPGPU-Sim uArch: cycles simulated: 12000  inst.: 1206336 (ipc=100.5) sim_rate=33509 (inst/sec) elapsed = 0:0:00:36 / Mon Jun  6 05:57:28 2016
GPGPU-Sim uArch: cycles simulated: 12500  inst.: 1261632 (ipc=100.9) sim_rate=33200 (inst/sec) elapsed = 0:0:00:38 / Mon Jun  6 05:57:30 2016
GPGPU-Sim PTX: 1300000 instructions simulated : ctaid=(44,0,0) tid=(31,0,0)
GPGPU-Sim uArch: cycles simulated: 13000  inst.: 1316576 (ipc=101.3) sim_rate=32914 (inst/sec) elapsed = 0:0:00:40 / Mon Jun  6 05:57:32 2016
GPGPU-Sim uArch: cycles simulated: 13500  inst.: 1365984 (ipc=101.2) sim_rate=33316 (inst/sec) elapsed = 0:0:00:41 / Mon Jun  6 05:57:33 2016
GPGPU-Sim PTX: 1400000 instructions simulated : ctaid=(48,0,0) tid=(31,0,0)
GPGPU-Sim uArch: cycles simulated: 14000  inst.: 1426688 (ipc=101.9) sim_rate=33178 (inst/sec) elapsed = 0:0:00:43 / Mon Jun  6 05:57:35 2016
GPGPU-Sim uArch: cycles simulated: 14500  inst.: 1483616 (ipc=102.3) sim_rate=32969 (inst/sec) elapsed = 0:0:00:45 / Mon Jun  6 05:57:37 2016
GPGPU-Sim PTX: 1500000 instructions simulated : ctaid=(61,0,0) tid=(31,0,0)
GPGPU-Sim uArch: cycles simulated: 15000  inst.: 1544320 (ipc=103.0) sim_rate=33572 (inst/sec) elapsed = 0:0:00:46 / Mon Jun  6 05:57:38 2016
GPGPU-Sim PTX: 1600000 instructions simulated : ctaid=(44,0,0) tid=(31,0,0)
GPGPU-Sim uArch: cycles simulated: 15500  inst.: 1596800 (ipc=103.0) sim_rate=33266 (inst/sec) elapsed = 0:0:00:48 / Mon Jun  6 05:57:40 2016
GPGPU-Sim uArch: cycles simulated: 16000  inst.: 1649344 (ipc=103.1) sim_rate=33660 (inst/sec) elapsed = 0:0:00:49 / Mon Jun  6 05:57:41 2016
GPGPU-Sim PTX: 1700000 instructions simulated : ctaid=(23,0,0) tid=(31,0,0)
GPGPU-Sim uArch: cycles simulated: 16500  inst.: 1719712 (ipc=104.2) sim_rate=33719 (inst/sec) elapsed = 0:0:00:51 / Mon Jun  6 05:57:43 2016
GPGPU-Sim uArch: cycles simulated: 17000  inst.: 1775968 (ipc=104.5) sim_rate=33508 (inst/sec) elapsed = 0:0:00:53 / Mon Jun  6 05:57:45 2016
GPGPU-Sim PTX: 1800000 instructions simulated : ctaid=(48,0,0) tid=(31,0,0)
GPGPU-Sim uArch: cycles simulated: 17500  inst.: 1842144 (ipc=105.3) sim_rate=34113 (inst/sec) elapsed = 0:0:00:54 / Mon Jun  6 05:57:46 2016
GPGPU-Sim PTX: 1900000 instructions simulated : ctaid=(22,0,0) tid=(63,0,0)
GPGPU-Sim uArch: cycles simulated: 18000  inst.: 1905344 (ipc=105.9) sim_rate=34024 (inst/sec) elapsed = 0:0:00:56 / Mon Jun  6 05:57:48 2016
GPGPU-Sim uArch: cycles simulated: 18500  inst.: 1961760 (ipc=106.0) sim_rate=33823 (inst/sec) elapsed = 0:0:00:58 / Mon Jun  6 05:57:50 2016
GPGPU-Sim PTX: 2000000 instructions simulated : ctaid=(28,0,0) tid=(31,0,0)
GPGPU-Sim uArch: cycles simulated: 19000  inst.: 2033248 (ipc=107.0) sim_rate=33887 (inst/sec) elapsed = 0:0:01:00 / Mon Jun  6 05:57:52 2016
GPGPU-Sim uArch: cycles simulated: 19500  inst.: 2078720 (ipc=106.6) sim_rate=34077 (inst/sec) elapsed = 0:0:01:01 / Mon Jun  6 05:57:53 2016
GPGPU-Sim PTX: 2100000 instructions simulated : ctaid=(17,0,0) tid=(63,0,0)
GPGPU-Sim uArch: cycles simulated: 20000  inst.: 2152512 (ipc=107.6) sim_rate=34166 (inst/sec) elapsed = 0:0:01:03 / Mon Jun  6 05:57:55 2016
GPGPU-Sim PTX: 2200000 instructions simulated : ctaid=(50,0,0) tid=(63,0,0)
GPGPU-Sim uArch: cycles simulated: 20500  inst.: 2215136 (ipc=108.1) sim_rate=34079 (inst/sec) elapsed = 0:0:01:05 / Mon Jun  6 05:57:57 2016
GPGPU-Sim PTX: 2300000 instructions simulated : ctaid=(20,0,0) tid=(63,0,0)
GPGPU-Sim uArch: cycles simulated: 21000  inst.: 2282816 (ipc=108.7) sim_rate=34071 (inst/sec) elapsed = 0:0:01:07 / Mon Jun  6 05:57:59 2016
GPGPU-Sim uArch: cycles simulated: 21500  inst.: 2352928 (ipc=109.4) sim_rate=34601 (inst/sec) elapsed = 0:0:01:08 / Mon Jun  6 05:58:00 2016
GPGPU-Sim PTX: 2400000 instructions simulated : ctaid=(7,0,0) tid=(63,0,0)
GPGPU-Sim uArch: cycles simulated: 22000  inst.: 2413216 (ipc=109.7) sim_rate=34474 (inst/sec) elapsed = 0:0:01:10 / Mon Jun  6 05:58:02 2016
GPGPU-Sim PTX: 2500000 instructions simulated : ctaid=(30,0,0) tid=(31,0,0)
GPGPU-Sim uArch: cycles simulated: 22500  inst.: 2481760 (ipc=110.3) sim_rate=34468 (inst/sec) elapsed = 0:0:01:12 / Mon Jun  6 05:58:04 2016
GPGPU-Sim uArch: cycles simulated: 23000  inst.: 2552480 (ipc=111.0) sim_rate=34965 (inst/sec) elapsed = 0:0:01:13 / Mon Jun  6 05:58:05 2016
GPGPU-Sim PTX: 2600000 instructions simulated : ctaid=(44,0,0) tid=(63,0,0)
GPGPU-Sim uArch: cycles simulated: 23500  inst.: 2615008 (ipc=111.3) sim_rate=34866 (inst/sec) elapsed = 0:0:01:15 / Mon Jun  6 05:58:07 2016
GPGPU-Sim PTX: 2700000 instructions simulated : ctaid=(55,0,0) tid=(63,0,0)
GPGPU-Sim uArch: cycles simulated: 24000  inst.: 2681376 (ipc=111.7) sim_rate=34823 (inst/sec) elapsed = 0:0:01:17 / Mon Jun  6 05:58:09 2016
GPGPU-Sim uArch: cycles simulated: 24500  inst.: 2747328 (ipc=112.1) sim_rate=35222 (inst/sec) elapsed = 0:0:01:18 / Mon Jun  6 05:58:10 2016
GPGPU-Sim PTX: 2800000 instructions simulated : ctaid=(5,0,0) tid=(63,0,0)
GPGPU-Sim uArch: cycles simulated: 25000  inst.: 2824800 (ipc=113.0) sim_rate=35310 (inst/sec) elapsed = 0:0:01:20 / Mon Jun  6 05:58:12 2016
GPGPU-Sim PTX: 2900000 instructions simulated : ctaid=(51,0,0) tid=(63,0,0)
GPGPU-Sim uArch: cycles simulated: 25500  inst.: 2898016 (ipc=113.6) sim_rate=35341 (inst/sec) elapsed = 0:0:01:22 / Mon Jun  6 05:58:14 2016
GPGPU-Sim uArch: cycles simulated: 26000  inst.: 2972032 (ipc=114.3) sim_rate=35381 (inst/sec) elapsed = 0:0:01:24 / Mon Jun  6 05:58:16 2016
GPGPU-Sim PTX: 3000000 instructions simulated : ctaid=(51,0,0) tid=(31,0,0)
GPGPU-Sim uArch: cycles simulated: 26500  inst.: 3044224 (ipc=114.9) sim_rate=35397 (inst/sec) elapsed = 0:0:01:26 / Mon Jun  6 05:58:18 2016
GPGPU-Sim PTX: 3100000 instructions simulated : ctaid=(2,0,0) tid=(31,0,0)
GPGPU-Sim uArch: cycles simulated: 27000  inst.: 3110400 (ipc=115.2) sim_rate=35345 (inst/sec) elapsed = 0:0:01:28 / Mon Jun  6 05:58:20 2016
GPGPU-Sim PTX: 3200000 instructions simulated : ctaid=(35,0,0) tid=(63,0,0)
GPGPU-Sim uArch: cycles simulated: 27500  inst.: 3190592 (ipc=116.0) sim_rate=35849 (inst/sec) elapsed = 0:0:01:29 / Mon Jun  6 05:58:21 2016
GPGPU-Sim uArch: cycles simulated: 28000  inst.: 3263680 (ipc=116.6) sim_rate=35864 (inst/sec) elapsed = 0:0:01:31 / Mon Jun  6 05:58:23 2016
GPGPU-Sim PTX: 3300000 instructions simulated : ctaid=(46,0,0) tid=(63,0,0)
GPGPU-Sim uArch: cycles simulated: 28500  inst.: 3342240 (ipc=117.3) sim_rate=35938 (inst/sec) elapsed = 0:0:01:33 / Mon Jun  6 05:58:25 2016
GPGPU-Sim PTX: 3400000 instructions simulated : ctaid=(14,0,0) tid=(31,0,0)
GPGPU-Sim uArch: cycles simulated: 29000  inst.: 3412992 (ipc=117.7) sim_rate=35926 (inst/sec) elapsed = 0:0:01:35 / Mon Jun  6 05:58:27 2016
GPGPU-Sim PTX: 3500000 instructions simulated : ctaid=(35,0,0) tid=(63,0,0)
GPGPU-Sim uArch: cycles simulated: 29500  inst.: 3491904 (ipc=118.4) sim_rate=36374 (inst/sec) elapsed = 0:0:01:36 / Mon Jun  6 05:58:28 2016
GPGPU-Sim uArch: cycles simulated: 30000  inst.: 3575552 (ipc=119.2) sim_rate=36485 (inst/sec) elapsed = 0:0:01:38 / Mon Jun  6 05:58:30 2016
GPGPU-Sim PTX: 3600000 instructions simulated : ctaid=(32,0,0) tid=(63,0,0)
GPGPU-Sim uArch: cycles simulated: 30500  inst.: 3668480 (ipc=120.3) sim_rate=36684 (inst/sec) elapsed = 0:0:01:40 / Mon Jun  6 05:58:32 2016
GPGPU-Sim PTX: 3700000 instructions simulated : ctaid=(33,0,0) tid=(31,0,0)
GPGPU-Sim uArch: cycles simulated: 31000  inst.: 3772544 (ipc=121.7) sim_rate=36985 (inst/sec) elapsed = 0:0:01:42 / Mon Jun  6 05:58:34 2016
GPGPU-Sim PTX: 3800000 instructions simulated : ctaid=(43,0,0) tid=(31,0,0)
GPGPU-Sim PTX: 3900000 instructions simulated : ctaid=(48,0,0) tid=(63,0,0)
GPGPU-Sim uArch: cycles simulated: 31500  inst.: 3879264 (ipc=123.2) sim_rate=37300 (inst/sec) elapsed = 0:0:01:44 / Mon Jun  6 05:58:36 2016
GPGPU-Sim PTX: 4000000 instructions simulated : ctaid=(23,0,0) tid=(31,0,0)
GPGPU-Sim uArch: cycles simulated: 32000  inst.: 3978592 (ipc=124.3) sim_rate=37533 (inst/sec) elapsed = 0:0:01:46 / Mon Jun  6 05:58:38 2016
GPGPU-Sim PTX: 4100000 instructions simulated : ctaid=(17,0,0) tid=(31,0,0)
GPGPU-Sim uArch: cycles simulated: 32500  inst.: 4075840 (ipc=125.4) sim_rate=38091 (inst/sec) elapsed = 0:0:01:47 / Mon Jun  6 05:58:39 2016
GPGPU-Sim PTX: 4200000 instructions simulated : ctaid=(9,0,0) tid=(31,0,0)
GPGPU-Sim uArch: cycles simulated: 33000  inst.: 4179328 (ipc=126.6) sim_rate=38342 (inst/sec) elapsed = 0:0:01:49 / Mon Jun  6 05:58:41 2016
GPGPU-Sim PTX: 4300000 instructions simulated : ctaid=(21,0,0) tid=(63,0,0)
GPGPU-Sim uArch: cycles simulated: 33500  inst.: 4285728 (ipc=127.9) sim_rate=38610 (inst/sec) elapsed = 0:0:01:51 / Mon Jun  6 05:58:43 2016
GPGPU-Sim PTX: 4400000 instructions simulated : ctaid=(25,0,0) tid=(63,0,0)
GPGPU-Sim uArch: cycles simulated: 34000  inst.: 4392256 (ipc=129.2) sim_rate=38869 (inst/sec) elapsed = 0:0:01:53 / Mon Jun  6 05:58:45 2016
GPGPU-Sim PTX: 4500000 instructions simulated : ctaid=(4,0,0) tid=(63,0,0)
GPGPU-Sim uArch: cycles simulated: 34500  inst.: 4498912 (ipc=130.4) sim_rate=39120 (inst/sec) elapsed = 0:0:01:55 / Mon Jun  6 05:58:47 2016
GPGPU-Sim PTX: 4600000 instructions simulated : ctaid=(35,0,0) tid=(31,0,0)
GPGPU-Sim uArch: cycles simulated: 35000  inst.: 4603744 (ipc=131.5) sim_rate=39687 (inst/sec) elapsed = 0:0:01:56 / Mon Jun  6 05:58:48 2016
GPGPU-Sim PTX: 4700000 instructions simulated : ctaid=(23,0,0) tid=(63,0,0)
GPGPU-Sim uArch: cycles simulated: 35500  inst.: 4708320 (ipc=132.6) sim_rate=39901 (inst/sec) elapsed = 0:0:01:58 / Mon Jun  6 05:58:50 2016
GPGPU-Sim PTX: 4800000 instructions simulated : ctaid=(39,0,0) tid=(63,0,0)
GPGPU-Sim uArch: cycles simulated: 36000  inst.: 4812128 (ipc=133.7) sim_rate=40101 (inst/sec) elapsed = 0:0:02:00 / Mon Jun  6 05:58:52 2016
GPGPU-Sim PTX: 4900000 instructions simulated : ctaid=(36,0,0) tid=(31,0,0)
GPGPU-Sim uArch: cycles simulated: 36500  inst.: 4917344 (ipc=134.7) sim_rate=40639 (inst/sec) elapsed = 0:0:02:01 / Mon Jun  6 05:58:53 2016
GPGPU-Sim PTX: 5000000 instructions simulated : ctaid=(20,0,0) tid=(31,0,0)
GPGPU-Sim uArch: cycles simulated: 37000  inst.: 5022752 (ipc=135.8) sim_rate=40835 (inst/sec) elapsed = 0:0:02:03 / Mon Jun  6 05:58:55 2016
GPGPU-Sim PTX: 5100000 instructions simulated : ctaid=(20,0,0) tid=(31,0,0)
GPGPU-Sim uArch: cycles simulated: 37500  inst.: 5129440 (ipc=136.8) sim_rate=41035 (inst/sec) elapsed = 0:0:02:05 / Mon Jun  6 05:58:57 2016
GPGPU-Sim PTX: 5200000 instructions simulated : ctaid=(9,0,0) tid=(63,0,0)
GPGPU-Sim uArch: cycles simulated: 38000  inst.: 5236288 (ipc=137.8) sim_rate=41557 (inst/sec) elapsed = 0:0:02:06 / Mon Jun  6 05:58:58 2016
GPGPU-Sim PTX: 5300000 instructions simulated : ctaid=(8,0,0) tid=(31,0,0)
GPGPU-Sim uArch: cycles simulated: 38500  inst.: 5344128 (ipc=138.8) sim_rate=41751 (inst/sec) elapsed = 0:0:02:08 / Mon Jun  6 05:59:00 2016
GPGPU-Sim PTX: 5400000 instructions simulated : ctaid=(48,0,0) tid=(63,0,0)
GPGPU-Sim uArch: cycles simulated: 39000  inst.: 5448256 (ipc=139.7) sim_rate=41909 (inst/sec) elapsed = 0:0:02:10 / Mon Jun  6 05:59:02 2016
GPGPU-Sim PTX: 5500000 instructions simulated : ctaid=(63,0,0) tid=(63,0,0)
GPGPU-Sim uArch: cycles simulated: 39500  inst.: 5552512 (ipc=140.6) sim_rate=42385 (inst/sec) elapsed = 0:0:02:11 / Mon Jun  6 05:59:03 2016
GPGPU-Sim PTX: 5600000 instructions simulated : ctaid=(44,0,0) tid=(31,0,0)
GPGPU-Sim uArch: cycles simulated: 40000  inst.: 5656832 (ipc=141.4) sim_rate=42532 (inst/sec) elapsed = 0:0:02:13 / Mon Jun  6 05:59:05 2016
GPGPU-Sim PTX: 5700000 instructions simulated : ctaid=(20,0,0) tid=(31,0,0)
GPGPU-Sim uArch: cycles simulated: 40500  inst.: 5762496 (ipc=142.3) sim_rate=42685 (inst/sec) elapsed = 0:0:02:15 / Mon Jun  6 05:59:07 2016
GPGPU-Sim PTX: 5800000 instructions simulated : ctaid=(39,0,0) tid=(31,0,0)
GPGPU-Sim uArch: cycles simulated: 41000  inst.: 5870048 (ipc=143.2) sim_rate=43162 (inst/sec) elapsed = 0:0:02:16 / Mon Jun  6 05:59:08 2016
GPGPU-Sim PTX: 5900000 instructions simulated : ctaid=(21,0,0) tid=(31,0,0)
GPGPU-Sim PTX: 6000000 instructions simulated : ctaid=(8,0,0) tid=(63,0,0)
GPGPU-Sim uArch: cycles simulated: 41500  inst.: 5975232 (ipc=144.0) sim_rate=43298 (inst/sec) elapsed = 0:0:02:18 / Mon Jun  6 05:59:10 2016
GPGPU-Sim PTX: 6100000 instructions simulated : ctaid=(61,0,0) tid=(63,0,0)
GPGPU-Sim uArch: cycles simulated: 42000  inst.: 6080160 (ipc=144.8) sim_rate=43429 (inst/sec) elapsed = 0:0:02:20 / Mon Jun  6 05:59:12 2016
GPGPU-Sim PTX: 6200000 instructions simulated : ctaid=(58,0,0) tid=(31,0,0)
GPGPU-Sim uArch: cycles simulated: 42500  inst.: 6183712 (ipc=145.5) sim_rate=43856 (inst/sec) elapsed = 0:0:02:21 / Mon Jun  6 05:59:13 2016
GPGPU-Sim PTX: 6300000 instructions simulated : ctaid=(40,0,0) tid=(63,0,0)
GPGPU-Sim uArch: cycles simulated: 43000  inst.: 6290304 (ipc=146.3) sim_rate=43988 (inst/sec) elapsed = 0:0:02:23 / Mon Jun  6 05:59:15 2016
GPGPU-Sim PTX: 6400000 instructions simulated : ctaid=(25,0,0) tid=(63,0,0)
GPGPU-Sim uArch: cycles simulated: 43500  inst.: 6396448 (ipc=147.0) sim_rate=44113 (inst/sec) elapsed = 0:0:02:25 / Mon Jun  6 05:59:17 2016
GPGPU-Sim PTX: 6500000 instructions simulated : ctaid=(37,0,0) tid=(31,0,0)
GPGPU-Sim uArch: cycles simulated: 44000  inst.: 6503968 (ipc=147.8) sim_rate=44244 (inst/sec) elapsed = 0:0:02:27 / Mon Jun  6 05:59:19 2016
GPGPU-Sim PTX: 6600000 instructions simulated : ctaid=(5,0,0) tid=(63,0,0)
GPGPU-Sim uArch: cycles simulated: 44500  inst.: 6611744 (ipc=148.6) sim_rate=44673 (inst/sec) elapsed = 0:0:02:28 / Mon Jun  6 05:59:20 2016
GPGPU-Sim PTX: 6700000 instructions simulated : ctaid=(46,0,0) tid=(31,0,0)
GPGPU-Sim uArch: cycles simulated: 45000  inst.: 6718048 (ipc=149.3) sim_rate=44786 (inst/sec) elapsed = 0:0:02:30 / Mon Jun  6 05:59:22 2016
GPGPU-Sim PTX: 6800000 instructions simulated : ctaid=(53,0,0) tid=(63,0,0)
GPGPU-Sim uArch: cycles simulated: 45500  inst.: 6825536 (ipc=150.0) sim_rate=44904 (inst/sec) elapsed = 0:0:02:32 / Mon Jun  6 05:59:24 2016
GPGPU-Sim PTX: 6900000 instructions simulated : ctaid=(15,0,0) tid=(63,0,0)
GPGPU-Sim uArch: cycles simulated: 46000  inst.: 6931328 (ipc=150.7) sim_rate=45008 (inst/sec) elapsed = 0:0:02:34 / Mon Jun  6 05:59:26 2016
GPGPU-Sim PTX: 7000000 instructions simulated : ctaid=(49,0,0) tid=(31,0,0)
GPGPU-Sim uArch: cycles simulated: 46500  inst.: 7035520 (ipc=151.3) sim_rate=45099 (inst/sec) elapsed = 0:0:02:36 / Mon Jun  6 05:59:28 2016
GPGPU-Sim PTX: 7100000 instructions simulated : ctaid=(59,0,0) tid=(63,0,0)
GPGPU-Sim uArch: cycles simulated: 47000  inst.: 7139392 (ipc=151.9) sim_rate=45473 (inst/sec) elapsed = 0:0:02:37 / Mon Jun  6 05:59:29 2016
GPGPU-Sim PTX: 7200000 instructions simulated : ctaid=(15,0,0) tid=(63,0,0)
GPGPU-Sim uArch: cycles simulated: 47500  inst.: 7245376 (ipc=152.5) sim_rate=45568 (inst/sec) elapsed = 0:0:02:39 / Mon Jun  6 05:59:31 2016
GPGPU-Sim PTX: 7300000 instructions simulated : ctaid=(47,0,0) tid=(31,0,0)
GPGPU-Sim uArch: cycles simulated: 48000  inst.: 7350272 (ipc=153.1) sim_rate=45653 (inst/sec) elapsed = 0:0:02:41 / Mon Jun  6 05:59:33 2016
GPGPU-Sim PTX: 7400000 instructions simulated : ctaid=(17,0,0) tid=(31,0,0)
GPGPU-Sim uArch: cycles simulated: 48500  inst.: 7453600 (ipc=153.7) sim_rate=45727 (inst/sec) elapsed = 0:0:02:43 / Mon Jun  6 05:59:35 2016
GPGPU-Sim PTX: 7500000 instructions simulated : ctaid=(52,0,0) tid=(63,0,0)
GPGPU-Sim uArch: cycles simulated: 49000  inst.: 7555808 (ipc=154.2) sim_rate=46072 (inst/sec) elapsed = 0:0:02:44 / Mon Jun  6 05:59:36 2016
GPGPU-Sim PTX: 7600000 instructions simulated : ctaid=(27,0,0) tid=(63,0,0)
GPGPU-Sim uArch: cycles simulated: 49500  inst.: 7658912 (ipc=154.7) sim_rate=46138 (inst/sec) elapsed = 0:0:02:46 / Mon Jun  6 05:59:38 2016
GPGPU-Sim PTX: 7700000 instructions simulated : ctaid=(32,0,0) tid=(63,0,0)
GPGPU-Sim uArch: cycles simulated: 50000  inst.: 7761664 (ipc=155.2) sim_rate=46200 (inst/sec) elapsed = 0:0:02:48 / Mon Jun  6 05:59:40 2016
GPGPU-Sim PTX: 7800000 instructions simulated : ctaid=(43,0,0) tid=(63,0,0)
GPGPU-Sim uArch: cycles simulated: 50500  inst.: 7865280 (ipc=155.7) sim_rate=46266 (inst/sec) elapsed = 0:0:02:50 / Mon Jun  6 05:59:42 2016
GPGPU-Sim PTX: 7900000 instructions simulated : ctaid=(32,0,0) tid=(63,0,0)
GPGPU-Sim uArch: cycles simulated: 51000  inst.: 7969344 (ipc=156.3) sim_rate=46604 (inst/sec) elapsed = 0:0:02:51 / Mon Jun  6 05:59:43 2016
GPGPU-Sim PTX: 8000000 instructions simulated : ctaid=(55,0,0) tid=(63,0,0)
GPGPU-Sim uArch: cycles simulated: 51500  inst.: 8072384 (ipc=156.7) sim_rate=46661 (inst/sec) elapsed = 0:0:02:53 / Mon Jun  6 05:59:45 2016
GPGPU-Sim PTX: 8100000 instructions simulated : ctaid=(61,0,0) tid=(63,0,0)
GPGPU-Sim PTX: 8200000 instructions simulated : ctaid=(36,0,0) tid=(63,0,0)
GPGPU-Sim uArch: cycles simulated: 52000  inst.: 8175136 (ipc=157.2) sim_rate=46715 (inst/sec) elapsed = 0:0:02:55 / Mon Jun  6 05:59:47 2016
GPGPU-Sim PTX: 8300000 instructions simulated : ctaid=(24,0,0) tid=(63,0,0)
GPGPU-Sim uArch: cycles simulated: 52500  inst.: 8278048 (ipc=157.7) sim_rate=47034 (inst/sec) elapsed = 0:0:02:56 / Mon Jun  6 05:59:48 2016
GPGPU-Sim PTX: 8400000 instructions simulated : ctaid=(9,0,0) tid=(31,0,0)
GPGPU-Sim uArch: cycles simulated: 53000  inst.: 8378624 (ipc=158.1) sim_rate=47070 (inst/sec) elapsed = 0:0:02:58 / Mon Jun  6 05:59:50 2016
GPGPU-Sim PTX: 8500000 instructions simulated : ctaid=(5,0,0) tid=(31,0,0)
GPGPU-Sim uArch: cycles simulated: 53500  inst.: 8480576 (ipc=158.5) sim_rate=47114 (inst/sec) elapsed = 0:0:03:00 / Mon Jun  6 05:59:52 2016
GPGPU-Sim PTX: 8600000 instructions simulated : ctaid=(10,0,0) tid=(31,0,0)
GPGPU-Sim uArch: cycles simulated: 54000  inst.: 8579488 (ipc=158.9) sim_rate=47400 (inst/sec) elapsed = 0:0:03:01 / Mon Jun  6 05:59:53 2016
GPGPU-Sim PTX: 8700000 instructions simulated : ctaid=(23,0,0) tid=(63,0,0)
GPGPU-Sim uArch: cycles simulated: 54500  inst.: 8678368 (ipc=159.2) sim_rate=47422 (inst/sec) elapsed = 0:0:03:03 / Mon Jun  6 05:59:55 2016
GPGPU-Sim PTX: 8800000 instructions simulated : ctaid=(57,0,0) tid=(63,0,0)
GPGPU-Sim uArch: cycles simulated: 55000  inst.: 8776608 (ipc=159.6) sim_rate=47441 (inst/sec) elapsed = 0:0:03:05 / Mon Jun  6 05:59:57 2016
GPGPU-Sim PTX: 8900000 instructions simulated : ctaid=(3,0,0) tid=(31,0,0)
GPGPU-Sim uArch: cycles simulated: 55500  inst.: 8875584 (ipc=159.9) sim_rate=47718 (inst/sec) elapsed = 0:0:03:06 / Mon Jun  6 05:59:58 2016
GPGPU-Sim PTX: 9000000 instructions simulated : ctaid=(56,0,0) tid=(63,0,0)
GPGPU-Sim uArch: cycles simulated: 56000  inst.: 8975552 (ipc=160.3) sim_rate=47742 (inst/sec) elapsed = 0:0:03:08 / Mon Jun  6 06:00:00 2016
GPGPU-Sim uArch: cycles simulated: 56500  inst.: 9074752 (ipc=160.6) sim_rate=47761 (inst/sec) elapsed = 0:0:03:10 / Mon Jun  6 06:00:02 2016
GPGPU-Sim PTX: 9100000 instructions simulated : ctaid=(46,0,0) tid=(63,0,0)
GPGPU-Sim PTX: 9200000 instructions simulated : ctaid=(54,0,0) tid=(63,0,0)
GPGPU-Sim uArch: cycles simulated: 57000  inst.: 9175712 (ipc=161.0) sim_rate=48040 (inst/sec) elapsed = 0:0:03:11 / Mon Jun  6 06:00:03 2016
GPGPU-Sim PTX: 9300000 instructions simulated : ctaid=(17,0,0) tid=(63,0,0)
GPGPU-Sim uArch: cycles simulated: 57500  inst.: 9275968 (ipc=161.3) sim_rate=48062 (inst/sec) elapsed = 0:0:03:13 / Mon Jun  6 06:00:05 2016
GPGPU-Sim uArch: cycles simulated: 58000  inst.: 9374816 (ipc=161.6) sim_rate=48323 (inst/sec) elapsed = 0:0:03:14 / Mon Jun  6 06:00:06 2016
GPGPU-Sim PTX: 9400000 instructions simulated : ctaid=(57,0,0) tid=(31,0,0)
GPGPU-Sim PTX: 9500000 instructions simulated : ctaid=(33,0,0) tid=(31,0,0)
GPGPU-Sim uArch: cycles simulated: 58500  inst.: 9476160 (ipc=162.0) sim_rate=48347 (inst/sec) elapsed = 0:0:03:16 / Mon Jun  6 06:00:08 2016
GPGPU-Sim PTX: 9600000 instructions simulated : ctaid=(35,0,0) tid=(63,0,0)
GPGPU-Sim uArch: cycles simulated: 59000  inst.: 9576960 (ipc=162.3) sim_rate=48368 (inst/sec) elapsed = 0:0:03:18 / Mon Jun  6 06:00:10 2016
GPGPU-Sim PTX: 9700000 instructions simulated : ctaid=(20,0,0) tid=(31,0,0)
GPGPU-Sim uArch: cycles simulated: 59500  inst.: 9677728 (ipc=162.7) sim_rate=48388 (inst/sec) elapsed = 0:0:03:20 / Mon Jun  6 06:00:12 2016
GPGPU-Sim PTX: 9800000 instructions simulated : ctaid=(45,0,0) tid=(31,0,0)
GPGPU-Sim uArch: cycles simulated: 60000  inst.: 9780160 (ipc=163.0) sim_rate=48657 (inst/sec) elapsed = 0:0:03:21 / Mon Jun  6 06:00:13 2016
GPGPU-Sim PTX: 9900000 instructions simulated : ctaid=(45,0,0) tid=(63,0,0)
GPGPU-Sim uArch: cycles simulated: 60500  inst.: 9880768 (ipc=163.3) sim_rate=48673 (inst/sec) elapsed = 0:0:03:23 / Mon Jun  6 06:00:15 2016
GPGPU-Sim PTX: 10000000 instructions simulated : ctaid=(21,0,0) tid=(31,0,0)
GPGPU-Sim uArch: cycles simulated: 61000  inst.: 9983296 (ipc=163.7) sim_rate=48937 (inst/sec) elapsed = 0:0:03:24 / Mon Jun  6 06:00:16 2016
GPGPU-Sim PTX: 10100000 instructions simulated : ctaid=(63,0,0) tid=(63,0,0)
GPGPU-Sim uArch: cycles simulated: 61500  inst.: 10082496 (ipc=163.9) sim_rate=48944 (inst/sec) elapsed = 0:0:03:26 / Mon Jun  6 06:00:18 2016
GPGPU-Sim PTX: 10200000 instructions simulated : ctaid=(36,0,0) tid=(63,0,0)
GPGPU-Sim uArch: cycles simulated: 62000  inst.: 10185376 (ipc=164.3) sim_rate=48968 (inst/sec) elapsed = 0:0:03:28 / Mon Jun  6 06:00:20 2016
GPGPU-Sim PTX: 10300000 instructions simulated : ctaid=(0,0,0) tid=(63,0,0)
GPGPU-Sim uArch: cycles simulated: 62500  inst.: 10286208 (ipc=164.6) sim_rate=49216 (inst/sec) elapsed = 0:0:03:29 / Mon Jun  6 06:00:21 2016
[...]
dq_lat_table:0 	0 	0 	0 	0 	0 	0 	0 	0 	0 	0 	0 	0 	0 	0 	0 	0 	0 	0 	0 	0 	0 	0 	0 	0 	0 	0 	0 	0 	0 	0 	0 	
mf_lat_table:0 	0 	0 	0 	0 	0 	0 	103361 	1827076 	53042 	8496 	0 	0 	0 	0 	0 	0 	0 	0 	0 	0 	0 	0 	0 	0 	0 	0 	0 	0 	0 	0 	0 	
icnt2mem_lat_table:0 	0 	0 	2335158 	508265 	27398 	12586 	14935 	25316 	1101 	4 	0 	0 	0 	0 	0 	0 	0 	0 	0 	0 	0 	0 	0 	
icnt2sh_lat_table:0 	0 	0 	1356482 	241431 	199 	0 	0 	0 	63 	512 	1258 	2781 	5698 	10164 	4 	0 	0 	0 	53 	226286 	143897 	3147 	0 	
mf_lat_pw_table:0 	0 	0 	0 	0 	0 	0 	853 	9671 	165 	7 	0 	0 	0 	0 	0 	0 	0 	0 	0 	0 	0 	0 	0 	0 	0 	0 	0 	0 	0 	0 	0 	
maximum concurrent accesses to same row:
dram[0]:        36        40        38        42        36        34        36        36        38        40        36        40        42        44        40        44 
dram[1]:        34        40        34        32        32        34        36        32        36        34        36        32        38        38        42        42 
dram[2]:        28        20        25        27        28        26        28        26        24        25        26        27        32        30        38        52 
dram[3]:        38        46        38        40        44        42        36        44        36        42        38        36        40        44        40        42 
dram[4]:        34        40        34        36        34        36        32        34        32        32        34        32        36        38        36        48 
dram[5]:        20        20        27        28        25        25        27        26        24        26        28        26        42        28        44        36 
maximum service time to same row:
dram[0]:     58869     30909     35735     61003     42880     66984     29336     21590     25928     34241     28490     28218     23194     57084     40228     31927 
dram[1]:     33716     25437     65103     59292     25119     42306     55418     54553     26323     17096     20103     23234     28795     25371     55730     56750 
dram[2]:     28006     23948     44911     40273     28620     24544     21380     36225     25316     30297     25060     19338     30847     27253     38566     25859 
dram[3]:     58153     34930     33069     59454     56782     46263     20260     25111     19551     32778     31807     34967     55065     56453     37305     70390 
dram[4]:     30828     43957     46847     58781     33230     51723     54318     61449     19267     20152     16563     28611     34976     31567     45577     59171 
dram[5]:     39870     13796     45913     40763     19652     33738     23579     36965     42953     27528     42145     31050     40537     25137     34379     64349 
average row accesses per activate:
dram[0]:  2.378828  2.411796  2.331786  2.374495  2.364018  2.309306  2.295094  2.323308  2.263038  2.293168  2.283334  2.234321  2.362716  2.470742  2.512166  2.438253 
dram[1]:  2.545112  2.570851  2.566997  2.524747  2.461533  2.526847  2.513933  2.439004  2.416804  2.426668  2.369960  2.419775  2.617297  2.547275  2.611727  2.664284 
dram[2]:  2.067845  2.087404  2.059368  2.066098  2.035656  2.036290  2.044072  2.032024  1.989148  1.999085  1.986491  1.991057  2.102355  2.087530  2.124454  2.114556 
dram[3]:  2.357621  2.451180  2.405319  2.348004  2.309807  2.340876  2.283280  2.342612  2.297368  2.242561  2.238798  2.296296  2.420331  2.408768  2.481032  2.436755 
dram[4]:  2.614337  2.519161  2.513237  2.538133  2.474276  2.492776  2.518877  2.444474  2.397495  2.455401  2.425050  2.396715  2.557462  2.526070  2.623366  2.689381 
dram[5]:  2.080201  2.082969  2.062643  2.062926  2.023428  2.031355  2.039979  2.020911  2.001842  1.996590  1.971768  2.006578  2.099349  2.085546  2.134403  2.153182 
average row locality = 3274865/1434440 = 2.283027
number of total memory accesses made:
dram[0]:         0         0         0         0         0         0         0         0         0         0         0         0         0         0         0         0 
dram[1]:         0         0         0         0         0         0         0         0         0         0         0         0         0         0         0         0 
dram[2]:         0         0         0         0         0         0         0         0         0         0         0         0         0         0         0         0 
dram[3]:         0         0         0         0         0         0         0         0         0         0         0         0         0         0         0         0 
dram[4]:         0         0         0         0         0         0         0         0         0         0         0         0         0         0         0         0 
dram[5]:         0         0         0         0         0         0         0         0         0         0         0         0         0         0         0         0 
total accesses: 0
min_bank_accesses = 0!
min_chip_accesses = 0!
number of total read accesses:
dram[0]:     20076     19996     20275     20624     21090     20770     21457     21362     21356     22136     22152     21121     19326     20017     19860     19218 
dram[1]:     20388     20124     20415     21019     21425     21024     21858     21682     21514     22536     22599     21313     19401     20363     20107     19515 
dram[2]:     20520     20939     21169     21637     22263     21209     21898     22675     22515     22743     23181     22150     19864     20874     20938     19706 
dram[3]:     19731     20133     20585     20526     21032     20584     21230     22025     22043     21363     21684     21678     19496     19557     19973     19357 
dram[4]:     19894     20450     20783     20891     21460     20829     21447     22418     22378     21687     22031     21973     19617     20060     20324     19458 
dram[5]:     20378     21219     21716     21032     21728     21604     21869     22959     23290     21940     22083     23128     20514     20058     20532     20181 
total reads: 2021328
bank skew: 23290/19218 = 1.21
chip skew: 344281/330836 = 1.04
number of total write accesses:
dram[0]:     12395     12146     12377     12892     13219     12805     13394     13476     13488     14080     14032     13187     11713     12241     11939     11543 
dram[1]:     12673     12297     12517     13209     13546     13048     13777     13786     13723     14444     14434     13464     11860     12586     12187     11801 
dram[2]:     12580     12687     12860     13466     13933     13019     13583     14255     14145     14384     14610     13693     11911     12825     12605     11803 
dram[3]:     11946     12377     12695     12710     13167     12729     13211     13995     14005     13455     13642     13600     11765     11981     12139     11524 
dram[4]:     12163     12682     12917     12988     13504     12988     13447     14364     14378     13796     13981     13925     11983     12400     12392     11642 
dram[5]:     12277     13100     13384     12866     13510     13380     13594     14539     14759     13773     13815     14391     12366     12220     12468     11966 
total reads: 1253537
bank skew: 14759/11524 = 1.28
chip skew: 212408/204927 = 1.04
average mf latency per bank:
dram[0]:        182       182       181       181       181       181       179       180       179       177       177       180       183       181       182       185
dram[1]:        182       183       182       181       181       182       178       180       179       177       177       180       183       181       183       184
dram[2]:        183       181       181       180       180       182       180       178       178       177       177       178       183       181       182       184
dram[3]:        183       183       182       182       182       183       181       179       178       180       179       179       184       184       183       185
dram[4]:        183       183       181       181       180       182       178       178       176       178       177       178       182       182       182       184
dram[5]:        183       182       180       182       181       182       181       178       176       180       179       177       182       184       183       184
maximum mf latency per bank:
dram[0]:       1503      1730      1439      1704      1371      1711      1500      1433      1484      1695      1503      1432      1447      1544      1421      1621
dram[1]:       1736      1634      1495      1431      1495      1426      1393      1423      1416      1533      1492      1367      1224      1300      1671      1514
dram[2]:       1578      1773      1654      1633      1477      1640      1361      1496      1319      1339      1484      1180      1243      1260      1591      1542
dram[3]:       1445      1666      1511      1663      1451      1510      1444      1410      1443      1583      1511      1481      1492      1373      1527      1593
dram[4]:       1936      1493      1626      1455      1454      1451      1348      1367      1447      1452      1310      1427      1416      1265      1726      1429
dram[5]:       1758      1755      1668      1464      1440      1427      1337      1365      1350      1413      1307      1412      1321      1312      1487      1509

Number of Memory Banks Accessed per Memory Operation per Warp (from 0):
0	0	0	0	0	0	0	0	0	0	0	0	0	0	0	0	0	0	0	0	0	0	0	0	0	0	0	0	0	0	0	0	0	0	0	0	0	0	0	0	0	0	0	0	0	0	0	0	0	0	0	0	0	0	0	0	0	0	0	0	0	0	0	0	0	0	0	0	0	0	0	0	0	0	0	0	0	0	0	0	0	0	0	0	0	0	0	0	0	0	0	0	0	0	0	0	
Average # of Memory Banks Accessed per Memory Operation per Warp=-nan

position of mrq chosen
0	0	0	0	0	0	0	0	0	0	0	0	0	0	0	0	

average position of mrq chosen = -nan
Memory Partition 0: 
Cache L2_bank_000:
MSHR contents

Cache L2_bank_001:
MSHR contents

In Dram Latency Queue (total = 0): 
DRAM[0]: 16 bks, busW=4 BL=8 CL=12, tRRD=2 tCCD=6, tRCD=12 tRAS=28 tRP=12 tRC=40
n_cmd=7061236 n_nop=5533354 n_act=228186 n_pre=228170 n_req=535763 n_rd=661672 n_write=409854 bw_util=0.3035
n_activity=5828543 dram_eff=0.3677
bk0: 40152a 6209254i bk1: 39992a 6204678i bk2: 40550a 6176838i bk3: 41248a 6155523i bk4: 42180a 6134325i bk5: 41540a 6126830i bk6: 42914a 6089128i bk7: 42724a 6090853i bk8: 42712a 6123385i bk9: 44272a 6076476i bk10: 44304a 6065830i bk11: 42242a 6093131i bk12: 38652a 6197913i bk13: 40034a 6184684i bk14: 39720a 6198377i bk15: 38436a 6221593i 
dram_util_bins: 0 0 0 0 0 0 0 0 0 0
dram_eff_bins: 0 0 0 0 0 0 0 0 0 0
mrqq: max=16 avg=2.17082
Memory Partition 1: 
Cache L2_bank_002:
MSHR contents

Cache L2_bank_003:
MSHR contents

In Dram Latency Queue (total = 0): 
DRAM[1]: 16 bks, busW=4 BL=8 CL=12, tRRD=2 tCCD=6, tRCD=12 tRAS=28 tRP=12 tRC=40
n_cmd=7061236 n_nop=5537560 n_act=217211 n_pre=217195 n_req=544635 n_rd=670566 n_write=418704 bw_util=0.3085
n_activity=5783258 dram_eff=0.3767
bk0: 40776a 6214654i bk1: 40248a 6214373i bk2: 40830a 6192618i bk3: 42038a 6161252i bk4: 42850a 6123076i bk5: 42048a 6147352i bk6: 43716a 6106845i bk7: 43364a 6091217i bk8: 43028a 6135903i bk9: 45072a 6081312i bk10: 45198a 6062422i bk11: 42626a 6111933i bk12: 38802a 6227178i bk13: 40726a 6180062i bk14: 40214a 6197520i bk15: 39030a 6228972i 
dram_util_bins: 0 0 0 0 0 0 0 0 0 0
dram_eff_bins: 0 0 0 0 0 0 0 0 0 0
mrqq: max=16 avg=2.1683
Memory Partition 2: 
Cache L2_bank_004:
MSHR contents

Cache L2_bank_005:
MSHR contents

In Dram Latency Queue (total = 0): 
DRAM[2]: 16 bks, busW=4 BL=8 CL=12, tRRD=2 tCCD=6, tRCD=12 tRAS=28 tRP=12 tRC=40
n_cmd=7061236 n_nop=5404518 n_act=271727 n_pre=271711 n_req=556640 n_rd=688562 n_write=424718 bw_util=0.3153
n_activity=5979833 dram_eff=0.3723
bk0: 41040a 6119657i bk1: 41878a 6092696i bk2: 42338a 6069322i bk3: 43274a 6038908i bk4: 44526a 5989395i bk5: 42418a 6038144i bk6: 43796a 5997467i bk7: 45350a 5949720i bk8: 45030a 5997113i bk9: 45486a 5972594i bk10: 46362a 5936229i bk11: 44300a 5979515i bk12: 39728a 6116010i bk13: 41748a 6062250i bk14: 41876a 6064682i bk15: 39412a 6117181i 
dram_util_bins: 0 0 0 0 0 0 0 0 0 0
dram_eff_bins: 0 0 0 0 0 0 0 0 0 0
mrqq: max=16 avg=1.92525
Memory Partition 3: 
Cache L2_bank_006:
MSHR contents

Cache L2_bank_007:
MSHR contents
MSHR: tag=0x80006d80, atomic=0 1 entries : 0x7fb92c3f8300 :  mf: uid=21778275, sid05:w07, part=3, addr=0x80006d80, load , size=128, unknown  status = IN_PARTITION_DRAM (5349420), 

In Dram Latency Queue (total = 0): 
DRAM[3]: 16 bks, busW=4 BL=8 CL=12, tRRD=2 tCCD=6, tRCD=12 tRAS=28 tRP=12 tRC=40
n_cmd=7061236 n_nop=5533034 n_act=228171 n_pre=228155 n_req=535938 n_rd=661994 n_write=409882 bw_util=0.3036
n_activity=5828291 dram_eff=0.3678
bk0: 39462a 6218259i bk1: 40266a 6206497i bk2: 41170a 6167587i bk3: 41052a 6150694i bk4: 42064a 6118828i bk5: 41168a 6142176i bk6: 42460a 6097625i bk7: 44050a 6061434i bk8: 44086a 6092615i bk9: 42726a 6102389i bk10: 43368a 6080317i bk11: 43356a 6078067i bk12: 38992a 6197959i bk13: 39114a 6199353i bk14: 39946a 6185563i bk15: 38714a 6209304i 
dram_util_bins: 0 0 0 0 0 0 0 0 0 0
dram_eff_bins: 0 0 0 0 0 0 0 0 0 0
mrqq: max=16 avg=2.19609
Memory Partition 4: 
Cache L2_bank_008:
MSHR contents

Cache L2_bank_009:
MSHR contents

In Dram Latency Queue (total = 0): 
DRAM[4]: 16 bks, busW=4 BL=8 CL=12, tRRD=2 tCCD=6, tRCD=12 tRAS=28 tRP=12 tRC=40
n_cmd=7061236 n_nop=5535514 n_act=217619 n_pre=217603 n_req=545250 n_rd=671400 n_write=419100 bw_util=0.3089
n_activity=5783704 dram_eff=0.3771
bk0: 39788a 6242998i bk1: 40900a 6203039i bk2: 41566a 6172446i bk3: 41782a 6166300i bk4: 42920a 6127537i bk5: 41658a 6146191i bk6: 42894a 6119496i bk7: 44836a 6059357i bk8: 44756a 6096968i bk9: 43374a 6128254i bk10: 44062a 6094747i bk11: 43946a 6079385i bk12: 39234a 6208812i bk13: 40120a 6188976i bk14: 40648a 6187094i bk15: 38916a 6229422i 
dram_util_bins: 0 0 0 0 0 0 0 0 0 0
dram_eff_bins: 0 0 0 0 0 0 0 0 0 0
mrqq: max=16 avg=2.18733
Memory Partition 5: 
Cache L2_bank_010:
MSHR contents

Cache L2_bank_011:
MSHR contents

In Dram Latency Queue (total = 0): 
DRAM[5]: 16 bks, busW=4 BL=8 CL=12, tRRD=2 tCCD=6, tRCD=12 tRAS=28 tRP=12 tRC=40
n_cmd=7061236 n_nop=5404920 n_act=271527 n_pre=271511 n_req=556639 n_rd=688462 n_write=424816 bw_util=0.3153
n_activity=5980658 dram_eff=0.3723
bk0: 40756a 6131893i bk1: 42438a 6084013i bk2: 43432a 6046129i bk3: 42064a 6069316i bk4: 43456a 6021125i bk5: 43208a 6017129i bk6: 43738a 5994869i bk7: 45918a 5932903i bk8: 46580a 5957595i bk9: 43880a 6010112i bk10: 44166a 5990858i bk11: 46256a 5936487i bk12: 41028a 6082124i bk13: 40116a 6103176i bk14: 41064a 6089947i bk15: 40362a 6103856i 
dram_util_bins: 0 0 0 0 0 0 0 0 0 0
dram_eff_bins: 0 0 0 0 0 0 0 0 0 0
mrqq: max=16 avg=1.92243

========= L2 cache stats =========
L2_cache_bank[0]: Access = 240056, Miss = 165592, Miss_rate = 0.690, Pending_hits = 0, Reservation_fails = 220
L2_cache_bank[1]: Access = 239673, Miss = 165244, Miss_rate = 0.689, Pending_hits = 6, Reservation_fails = 330
L2_cache_bank[2]: Access = 242554, Miss = 167707, Miss_rate = 0.691, Pending_hits = 6, Reservation_fails = 991
L2_cache_bank[3]: Access = 242260, Miss = 167576, Miss_rate = 0.692, Pending_hits = 0, Reservation_fails = 60
L2_cache_bank[4]: Access = 249057, Miss = 172348, Miss_rate = 0.692, Pending_hits = 5, Reservation_fails = 185
L2_cache_bank[5]: Access = 248471, Miss = 171933, Miss_rate = 0.692, Pending_hits = 1, Reservation_fails = 54
L2_cache_bank[6]: Access = 240148, Miss = 165774, Miss_rate = 0.690, Pending_hits = 9, Reservation_fails = 768
L2_cache_bank[7]: Access = 239830, Miss = 165223, Miss_rate = 0.689, Pending_hits = 1, Reservation_fails = 1150
L2_cache_bank[8]: Access = 242639, Miss = 167934, Miss_rate = 0.692, Pending_hits = 6, Reservation_fails = 505
L2_cache_bank[9]: Access = 242466, Miss = 167766, Miss_rate = 0.692, Pending_hits = 0, Reservation_fails = 174
L2_cache_bank[10]: Access = 248792, Miss = 172110, Miss_rate = 0.692, Pending_hits = 8, Reservation_fails = 524
L2_cache_bank[11]: Access = 248817, Miss = 172121, Miss_rate = 0.692, Pending_hits = 0, Reservation_fails = 411
L2_total_cache_accesses = 2924763
L2_total_cache_misses = 2021328
L2_total_cache_miss_rate = 0.6911
L2_total_cache_pending_hits = 42
L2_total_cache_reservation_fails = 5372
L2_total_cache_breakdown:
	L2_cache_stats_breakdown[LOCAL_ACC_R][HIT] = 82094
	L2_cache_stats_breakdown[LOCAL_ACC_R][MISS] = 1515883
	L2_cache_stats_breakdown[LOCAL_ACC_R][RESERVATION_FAIL] = 1616
	L2_cache_stats_breakdown[CONST_ACC_R][HIT] = 117
	L2_cache_stats_breakdown[CONST_ACC_R][HIT_RESERVED] = 8
	L2_cache_stats_breakdown[CONST_ACC_R][MISS] = 10
	L2_cache_stats_breakdown[CONST_ACC_R][RESERVATION_FAIL] = 100
	L2_cache_stats_breakdown[GLOBAL_ACC_W][MISS] = 384
	L2_cache_stats_breakdown[LOCAL_ACC_W][HIT] = 6919
	L2_cache_stats_breakdown[LOCAL_ACC_W][MISS] = 386560
	L2_cache_stats_breakdown[LOCAL_ACC_W][RESERVATION_FAIL] = 2649
	L2_cache_stats_breakdown[L1_WRBK_ACC][HIT] = 813826
	L2_cache_stats_breakdown[L1_WRBK_ACC][MISS] = 118452
	L2_cache_stats_breakdown[L1_WRBK_ACC][RESERVATION_FAIL] = 161
	L2_cache_stats_breakdown[INST_ACC_R][HIT] = 437
	L2_cache_stats_breakdown[INST_ACC_R][HIT_RESERVED] = 34
	L2_cache_stats_breakdown[INST_ACC_R][MISS] = 39
	L2_cache_stats_breakdown[INST_ACC_R][RESERVATION_FAIL] = 846
L2_cache_data_port_util = 0.095
L2_cache_fill_port_util = 0.126

icnt_total_pkts_mem_to_simt=8386703
icnt_total_pkts_simt_to_mem=8229327
LD_mem_lat_dist  0 0 0 0 0 0 0 0 0 0 0 0 0 0 0 0 0 0 0 0 0 0 0 0 0 0 0
ST_mem_lat_dist  0 0 0 0 0 0 0 0 0 0 0 0 0 0 0 0 0 0 0 0 0 0 0 0 0 0 0
----------------------------Interconnect-DETAILS--------------------------------
Class 0:
Packet latency average = 10.6301
	minimum = 6
	maximum = 725
Network latency average = 10.1697
	minimum = 6
	maximum = 581
Slowest packet = 1010209
Flit latency average = 8.13412
	minimum = 6
	maximum = 577
Slowest flit = 3640695
Fragmentation average = 0.0277597
	minimum = 0
	maximum = 503
Injected packet rate average = 0.0350273
	minimum = 0.0324629 (at node 16)
	maximum = 0.0428896 (at node 6)
Accepted packet rate average = 0.0350273
	minimum = 0.0247042 (at node 0)
	maximum = 0.0472378 (at node 19)
Injected flit rate average = 0.116334
	minimum = 0.0942239 (at node 14)
	maximum = 0.140643 (at node 19)
Accepted flit rate average= 0.116334
	minimum = 0.101964 (at node 0)
	maximum = 0.129775 (at node 19)
Injected packet length average = 3.32123
Accepted packet length average = 3.32123
Total in-flight flits = 0 (0 measured)
====== Overall Traffic Statistics ======
====== Traffic class 0 ======
Packet latency average = 10.9694 (2 samples)
	minimum = 6 (2 samples)
	maximum = 660.5 (2 samples)
Network latency average = 10.4565 (2 samples)
	minimum = 6 (2 samples)
	maximum = 580.5 (2 samples)
Flit latency average = 8.23934 (2 samples)
	minimum = 6 (2 samples)
	maximum = 576.5 (2 samples)
Fragmentation average = 0.0489516 (2 samples)
	minimum = 0 (2 samples)
	maximum = 463 (2 samples)
Injected packet rate average = 0.0328689 (2 samples)
	minimum = 0.0280951 (2 samples)
	maximum = 0.0425263 (2 samples)
Accepted packet rate average = 0.0328689 (2 samples)
	minimum = 0.0213967 (2 samples)
	maximum = 0.0468369 (2 samples)
Injected flit rate average = 0.113496 (2 samples)
	minimum = 0.0984174 (2 samples)
	maximum = 0.134461 (2 samples)
Accepted flit rate average = 0.113496 (2 samples)
	minimum = 0.0930298 (2 samples)
	maximum = 0.135537 (2 samples)
Injected packet size average = 3.453 (2 samples)
Accepted packet size average = 3.453 (2 samples)
Hops average = 1 (2 samples)
----------------------------END-of-Interconnect-DETAILS-------------------------


gpgpu_simulation_time = 0 days, 3 hrs, 26 min, 59 sec (12419 sec)
gpgpu_simulation_rate = 72499 (inst/sec)
gpgpu_simulation_rate = 430 (cycle/sec)
GPGPU-Sim: synchronize waiting for inactive GPU simulation
GPGPU-Sim API: Stream Manager State
GPGPU-Sim: detected inactive GPU simulation thread
v  =    224.32334900
Lb =     21.34812355
Time (Greeks)   : 8838039.000000 msec

Press ENTER to exit...
