
        *** GPGPU-Sim Simulator Version 3.2.2  [build 17315] ***


GPGPU-Sim PTX: simulation mode 0 (can change with PTX_SIM_MODE_FUNC environment variable:
               1=functional simulation only, 0=detailed performance simulator)
GPGPU-Sim: Configuration options:

-network_mode                           1 # Interconnection network mode
-inter_config_file   config_fermi_islip.icnt # Interconnection network config file
-gpgpu_ptx_use_cuobjdump                    1 # Use cuobjdump to extract ptx and sass from binaries
-gpgpu_experimental_lib_support                    0 # Try to extract code from cuda libraries [Broken because of unknown cudaGetExportTable]
-gpgpu_ptx_convert_to_ptxplus                    0 # Convert SASS (native ISA) to ptxplus and run ptxplus
-gpgpu_ptx_force_max_capability                   20 # Force maximum compute capability
-gpgpu_ptx_inst_debug_to_file                    0 # Dump executed instructions' debug information to file
-gpgpu_ptx_inst_debug_file       inst_debug.txt # Executed instructions' debug output file
-gpgpu_ptx_inst_debug_thread_uid                    1 # Thread UID for executed instructions' debug output
-gpgpu_simd_model                       1 # 1 = post-dominator
-gpgpu_shader_core_pipeline              1536:32 # shader core pipeline config, i.e., {<nthread>:<warpsize>}
-gpgpu_tex_cache:l1  4:128:24,L:R:m:N,F:128:4,128:2 # per-shader L1 texture cache  (READ-ONLY) config  {<nsets>:<bsize>:<assoc>,<rep>:<wr>:<alloc>:<wr_alloc>,<mshr>:<N>:<merge>,<mq>:<rf>}
-gpgpu_const_cache:l1 64:64:2,L:R:f:N,A:2:32,4 # per-shader L1 constant memory cache  (READ-ONLY) config  {<nsets>:<bsize>:<assoc>,<rep>:<wr>:<alloc>:<wr_alloc>,<mshr>:<N>:<merge>,<mq>} 
-gpgpu_cache:il1     4:128:4,L:R:f:N,A:2:32,4 # shader L1 instruction cache config  {<nsets>:<bsize>:<assoc>,<rep>:<wr>:<alloc>:<wr_alloc>,<mshr>:<N>:<merge>,<mq>} 
-gpgpu_cache:dl1     32:128:4,L:L:m:N,A:32:8,8 # per-shader L1 data cache config  {<nsets>:<bsize>:<assoc>,<rep>:<wr>:<alloc>:<wr_alloc>,<mshr>:<N>:<merge>,<mq> | none}
-gpgpu_cache:dl1PrefL1                 none # per-shader L1 data cache config  {<nsets>:<bsize>:<assoc>,<rep>:<wr>:<alloc>:<wr_alloc>,<mshr>:<N>:<merge>,<mq> | none}
-gpgpu_cache:dl1PreShared                 none # per-shader L1 data cache config  {<nsets>:<bsize>:<assoc>,<rep>:<wr>:<alloc>:<wr_alloc>,<mshr>:<N>:<merge>,<mq> | none}
-gmem_skip_L1D                          0 # global memory access skip L1D cache (implements -Xptxas -dlcm=cg, default=no skip)
-gpgpu_perfect_mem                      0 # enable perfect memory mode (no cache miss)
-n_regfile_gating_group                    4 # group of lanes that should be read/written together)
-gpgpu_clock_gated_reg_file                    0 # enable clock gated reg file for power calculations
-gpgpu_clock_gated_lanes                    0 # enable clock gated lanes for power calculations
-gpgpu_shader_registers                32768 # Number of registers per shader core. Limits number of concurrent CTAs. (default 8192)
-gpgpu_shader_cta                       8 # Maximum number of concurrent CTAs in shader (default 8)
-gpgpu_n_clusters                      15 # number of processing clusters
-gpgpu_n_cores_per_cluster                    1 # number of simd cores per cluster
-gpgpu_n_cluster_ejection_buffer_size                    8 # number of packets in ejection buffer
-gpgpu_n_ldst_response_buffer_size                    2 # number of response packets in ld/st unit ejection buffer
-gpgpu_shmem_size                   16384 # Size of shared memory per shader core (default 16kB)
-gpgpu_shmem_size                   49152 # Size of shared memory per shader core (default 16kB)
-gpgpu_shmem_size_PrefL1                16384 # Size of shared memory per shader core (default 16kB)
-gpgpu_shmem_size_PrefShared                16384 # Size of shared memory per shader core (default 16kB)
-gpgpu_shmem_num_banks                   32 # Number of banks in the shared memory in each shader core (default 16)
-gpgpu_shmem_limited_broadcast                    0 # Limit shared memory to do one broadcast per cycle (default on)
-gpgpu_shmem_warp_parts                    1 # Number of portions a warp is divided into for shared memory bank conflict check 
-gpgpu_warpdistro_shader                   -1 # Specify which shader core to collect the warp size distribution from
-gpgpu_warp_issue_shader                    0 # Specify which shader core to collect the warp issue distribution from
-gpgpu_local_mem_map                    1 # Mapping from local memory space address to simulated GPU physical address space (default = enabled)
-gpgpu_num_reg_banks                   16 # Number of register banks (default = 8)
-gpgpu_reg_bank_use_warp_id                    0 # Use warp ID in mapping registers to banks (default = off)
-gpgpu_operand_collector_num_units_sp                    6 # number of collector units (default = 4)
-gpgpu_operand_collector_num_units_sfu                    8 # number of collector units (default = 4)
-gpgpu_operand_collector_num_units_mem                    2 # number of collector units (default = 2)
-gpgpu_operand_collector_num_units_gen                    0 # number of collector units (default = 0)
-gpgpu_operand_collector_num_in_ports_sp                    2 # number of collector unit in ports (default = 1)
-gpgpu_operand_collector_num_in_ports_sfu                    1 # number of collector unit in ports (default = 1)
-gpgpu_operand_collector_num_in_ports_mem                    1 # number of collector unit in ports (default = 1)
-gpgpu_operand_collector_num_in_ports_gen                    0 # number of collector unit in ports (default = 0)
-gpgpu_operand_collector_num_out_ports_sp                    2 # number of collector unit in ports (default = 1)
-gpgpu_operand_collector_num_out_ports_sfu                    1 # number of collector unit in ports (default = 1)
-gpgpu_operand_collector_num_out_ports_mem                    1 # number of collector unit in ports (default = 1)
-gpgpu_operand_collector_num_out_ports_gen                    0 # number of collector unit in ports (default = 0)
-gpgpu_coalesce_arch                   13 # Coalescing arch (default = 13, anything else is off for now)
-gpgpu_num_sched_per_core                    2 # Number of warp schedulers per core
-gpgpu_max_insn_issue_per_warp                    1 # Max number of instructions that can be issued per warp in one cycle by scheduler
-gpgpu_simt_core_sim_order                    1 # Select the simulation order of cores in a cluster (0=Fix, 1=Round-Robin)
-gpgpu_pipeline_widths        2,1,1,2,1,1,2 # Pipeline widths ID_OC_SP,ID_OC_SFU,ID_OC_MEM,OC_EX_SP,OC_EX_SFU,OC_EX_MEM,EX_WB
-gpgpu_num_sp_units                     2 # Number of SP units (default=1)
-gpgpu_num_sfu_units                    1 # Number of SF units (default=1)
-gpgpu_num_mem_units                    1 # Number if ldst units (default=1) WARNING: not hooked up to anything
-gpgpu_scheduler                      gto # Scheduler configuration: < lrr | gto | two_level_active > If two_level_active:<num_active_warps>:<inner_prioritization>:<outer_prioritization>For complete list of prioritization values see shader.h enum scheduler_prioritization_typeDefault: gto
-gpgpu_dram_scheduler                    1 # 0 = fifo, 1 = FR-FCFS (defaul)
-gpgpu_dram_partition_queues              8:8:8:8 # i2$:$2d:d2$:$2i
-l2_ideal                               0 # Use a ideal L2 cache that always hit
-gpgpu_cache:dl2     64:128:8,L:B:m:W,A:32:4,4:0,32 # unified banked L2 data cache config  {<nsets>:<bsize>:<assoc>,<rep>:<wr>:<alloc>:<wr_alloc>,<mshr>:<N>:<merge>,<mq>}
-gpgpu_cache:dl2_texture_only                    0 # L2 cache used for texture only
-gpgpu_n_mem                            6 # number of memory modules (e.g. memory controllers) in gpu
-gpgpu_n_sub_partition_per_mchannel                    2 # number of memory subpartition in each memory module
-gpgpu_n_mem_per_ctrlr                    2 # number of memory chips per memory controller
-gpgpu_memlatency_stat                   14 # track and display latency statistics 0x2 enables MC, 0x4 enables queue logs
-gpgpu_frfcfs_dram_sched_queue_size                   16 # 0 = unlimited (default); # entries per chip
-gpgpu_dram_return_queue_size                  116 # 0 = unlimited (default); # entries per chip
-gpgpu_dram_buswidth                    4 # default = 4 bytes (8 bytes per cycle at DDR)
-gpgpu_dram_burst_length                    8 # Burst length of each DRAM request (default = 4 data bus cycle)
-dram_data_command_freq_ratio                    4 # Frequency ratio between DRAM data bus and command bus (default = 2 times, i.e. DDR)
-gpgpu_dram_timing_opt nbk=16:CCD=2:RRD=6:RCD=12:RAS=28:RP=12:RC=40: CL=12:WL=4:CDLR=5:WR=12:nbkgrp=4:CCDL=3:RTPL=2 # DRAM timing parameters = {nbk:tCCD:tRRD:tRCD:tRAS:tRP:tRC:CL:WL:tCDLR:tWR:nbkgrp:tCCDL:tRTPL}
-rop_latency                          120 # ROP queue latency (default 85)
-dram_latency                         100 # DRAM latency (default 30)
-gpgpu_mem_addr_mapping dramid@8;00000000.00000000.00000000.00000000.0000RRRR.RRRRRRRR.BBBCCCCB.CCSSSSSS # mapping memory address to dram model {dramid@<start bit>;<memory address map>}
-gpgpu_mem_addr_test                    0 # run sweep test to check address mapping for aliased address
-gpgpu_mem_address_mask                    1 # 0 = old addressing mask, 1 = new addressing mask, 2 = new add. mask + flipped bank sel and chip sel bits
-gpuwattch_xml_file  gpuwattch_gtx480.xml # GPUWattch XML file
-power_simulation_enabled                    1 # Turn on power simulator (1=On, 0=Off)
-power_per_cycle_dump                    0 # Dump detailed power output each cycle
-power_trace_enabled                    0 # produce a file for the power trace (1=On, 0=Off)
-power_trace_zlevel                     6 # Compression level of the power trace output log (0=no comp, 9=highest)
-steady_power_levels_enabled                    0 # produce a file for the steady power levels (1=On, 0=Off)
-steady_state_definition                  8:4 # allowed deviation:number of samples
-gpgpu_max_cycle                        0 # terminates gpu simulation early (0 = no limit)
-gpgpu_max_insn                         0 # terminates gpu simulation early (0 = no limit)
-gpgpu_max_cta                          0 # terminates gpu simulation early (0 = no limit)
-gpgpu_runtime_stat                   500 # display runtime statistics such as dram utilization {<freq>:<flag>}
-liveness_message_freq                    1 # Minimum number of seconds between simulation liveness messages (0 = always print)
-gpgpu_flush_l1_cache                    0 # Flush L1 cache at the end of each kernel call
-gpgpu_flush_l2_cache                    0 # Flush L2 cache at the end of each kernel call
-gpgpu_deadlock_detect                    1 # Stop the simulation at deadlock (1=on (default), 0=off)
-gpgpu_ptx_instruction_classification                    0 # if enabled will classify ptx instruction types per kernel (Max 255 kernels now)
-gpgpu_ptx_sim_mode                     0 # Select between Performance (default) or Functional simulation (1)
-gpgpu_clock_domains 700.0:700.0:700.0:924.0 # Clock Domain Frequencies in MhZ {<Core Clock>:<ICNT Clock>:<L2 Clock>:<DRAM Clock>}
-gpgpu_max_concurrent_kernel                    8 # maximum kernels that can run concurrently on GPU
-gpgpu_cflog_interval                    0 # Interval between each snapshot in control flow logger
-visualizer_enabled                     0 # Turn on visualizer output (1=On, 0=Off)
-visualizer_outputfile                 NULL # Specifies the output log file for visualizer
-visualizer_zlevel                      6 # Compression level of the visualizer output log (0=no comp, 9=highest)
-trace_enabled                          0 # Turn on traces
-trace_components                    none # comma seperated list of traces to enable. Complete list found in trace_streams.tup. Default none
-trace_sampling_core                    0 # The core which is printed using CORE_DPRINTF. Default 0
-trace_sampling_memory_partition                   -1 # The memory partition which is printed using MEMPART_DPRINTF. Default -1 (i.e. all)
-enable_ptx_file_line_stats                    1 # Turn on PTX source line statistic profiling. (1 = On)
-ptx_line_stats_filename gpgpu_inst_stats.txt # Output file for PTX source line statistics.
-save_embedded_ptx                      0 # saves ptx files embedded in binary as <n>.ptx
-keep                                   0 # keep intermediate files created by GPGPU-Sim when interfacing with external programs
-gpgpu_ptx_save_converted_ptxplus                    0 # Saved converted ptxplus to a file
-ptx_opcode_latency_int         4,13,4,5,145 # Opcode latencies for integers <ADD,MAX,MUL,MAD,DIV>Default 1,1,19,25,145
-ptx_opcode_latency_fp          4,13,4,5,39 # Opcode latencies for single precision floating points <ADD,MAX,MUL,MAD,DIV>Default 1,1,1,1,30
-ptx_opcode_latency_dp         8,19,8,8,330 # Opcode latencies for double precision floating points <ADD,MAX,MUL,MAD,DIV>Default 8,8,8,8,335
-ptx_opcode_initiation_int            1,2,2,1,8 # Opcode initiation intervals for integers <ADD,MAX,MUL,MAD,DIV>Default 1,1,4,4,32
-ptx_opcode_initiation_fp            1,2,1,1,4 # Opcode initiation intervals for single precision floating points <ADD,MAX,MUL,MAD,DIV>Default 1,1,1,1,5
-ptx_opcode_initiation_dp         8,16,8,8,130 # Opcode initiation intervals for double precision floating points <ADD,MAX,MUL,MAD,DIV>Default 8,8,8,8,130
DRAM Timing Options:
nbk                                    16 # number of banks
CCD                                     2 # column to column delay
RRD                                     6 # minimal delay between activation of rows in different banks
RCD                                    12 # row to column delay
RAS                                    28 # time needed to activate row
RP                                     12 # time needed to precharge (deactivate) row
RC                                     40 # row cycle time
CDLR                                    5 # switching from write to read (changes tWTR)
WR                                     12 # last data-in to row precharge
CL                                     12 # CAS latency
WL                                      4 # Write latency
nbkgrp                                  4 # number of bank groups
CCDL                                    3 # column to column delay between accesses to different bank groups
RTPL                                    2 # read to precharge delay between accesses to different bank groups
Total number of memory sub partition = 12
addr_dec_mask[CHIP]  = 0000000000000000 	high:64 low:0
addr_dec_mask[BK]    = 000000000000e100 	high:16 low:8
addr_dec_mask[ROW]   = 000000000fff0000 	high:28 low:16
addr_dec_mask[COL]   = 0000000000001eff 	high:13 low:0
addr_dec_mask[BURST] = 000000000000003f 	high:6 low:0
sub_partition_id_mask = 0000000000000100
GPGPU-Sim uArch: clock freqs: 700000000.000000:700000000.000000:700000000.000000:924000000.000000
GPGPU-Sim uArch: clock periods: 0.00000000142857142857:0.00000000142857142857:0.00000000142857142857:0.00000000108225108225
*** Initializing Memory Statistics ***
GPGPU-Sim uArch: interconnect node map (shaderID+MemID to icntID)
GPGPU-Sim uArch: Memory nodes ID start from index: 15
GPGPU-Sim uArch:    0   1   2   3   4
GPGPU-Sim uArch:    5   6   7   8   9
GPGPU-Sim uArch:   10  11  12  13  14
GPGPU-Sim uArch:   15  16  17  18  19
GPGPU-Sim uArch:   20  21  22  23  24
GPGPU-Sim uArch:   25  26
GPGPU-Sim uArch: interconnect node reverse map (icntID to shaderID+MemID)
GPGPU-Sim uArch: Memory nodes start from ID: 15
GPGPU-Sim uArch:    0   1   2   3   4
GPGPU-Sim uArch:    5   6   7   8   9
GPGPU-Sim uArch:   10  11  12  13  14
GPGPU-Sim uArch:   15  16  17  18  19
GPGPU-Sim uArch:   20  21  22  23  24
GPGPU-Sim uArch:   25  26
GPGPU-Sim uArch: performance model initialization complete.
GPGPU-Sim PTX: __cudaRegisterFatBinary, fat_cubin_handle = 1, filename=bfs.cu
self exe links to: /home/jaineshdoshi/Documents/GPGPU-sim/gpgpu-sim/ispass2009-benchmarks/bin/release/BFS
Running md5sum using "md5sum /home/jaineshdoshi/Documents/GPGPU-sim/gpgpu-sim/ispass2009-benchmarks/bin/release/BFS "
a1777bf433a618dda998ae75d5f99c46  /home/jaineshdoshi/Documents/GPGPU-sim/gpgpu-sim/ispass2009-benchmarks/bin/release/BFS
Running cuobjdump using "$CUDA_INSTALL_PATH/bin/cuobjdump -ptx -elf -sass /home/jaineshdoshi/Documents/GPGPU-sim/gpgpu-sim/ispass2009-benchmarks/bin/release/BFS > _cuobjdump_complete_output_4NTEVT"
Parsing file _cuobjdump_complete_output_4NTEVT
######### cuobjdump parser ########
## Adding new section ELF
Adding arch: sm_10
Adding identifier: bfs.cu
## Adding new section PTX
Adding ptx filename: _cuobjdump_1.ptx
Adding arch: sm_10
Adding identifier: bfs.cu
## Adding new section ELF
Adding arch: sm_20
Adding identifier: bfs.cu
## Adding new section PTX
Adding ptx filename: _cuobjdump_2.ptx
Adding arch: sm_20
Adding identifier: bfs.cu
Done parsing!!!
GPGPU-Sim PTX: __cudaRegisterFunction _Z6KernelP4NodePiPbS2_S1_S2_i : hostFun 0x0x4037f0, fat_cubin_handle = 1
GPGPU-Sim PTX: instruction assembly for function '_Z6KernelP4NodePiPbS2_S1_S2_i'...   done.
GPGPU-Sim PTX: finding reconvergence points for '_Z6KernelP4NodePiPbS2_S1_S2_i'...
GPGPU-Sim PTX: Finding dominators for '_Z6KernelP4NodePiPbS2_S1_S2_i'...
GPGPU-Sim PTX: Finding immediate dominators for '_Z6KernelP4NodePiPbS2_S1_S2_i'...
GPGPU-Sim PTX: Finding postdominators for '_Z6KernelP4NodePiPbS2_S1_S2_i'...
GPGPU-Sim PTX: Finding immediate postdominators for '_Z6KernelP4NodePiPbS2_S1_S2_i'...
GPGPU-Sim PTX: pre-decoding instructions for '_Z6KernelP4NodePiPbS2_S1_S2_i'...
GPGPU-Sim PTX: reconvergence points for _Z6KernelP4NodePiPbS2_S1_S2_i...
GPGPU-Sim PTX:  1 (potential) branch divergence @  PC=0x030 (_1.ptx:72) @%p1 bra $Lt_0_5122;
GPGPU-Sim PTX:    immediate post dominator      @  PC=0x1e8 (_1.ptx:141) exit;
GPGPU-Sim PTX:  2 (potential) branch divergence @  PC=0x068 (_1.ptx:79) @%p2 bra $Lt_0_5122;
GPGPU-Sim PTX:    immediate post dominator      @  PC=0x1e8 (_1.ptx:141) exit;
GPGPU-Sim PTX:  3 (potential) branch divergence @  PC=0x0e0 (_1.ptx:97) @%p3 bra $Lt_0_5122;
GPGPU-Sim PTX:    immediate post dominator      @  PC=0x1e8 (_1.ptx:141) exit;
GPGPU-Sim PTX:  4 (potential) branch divergence @  PC=0x138 (_1.ptx:111) @%p4 bra $Lt_0_4354;
GPGPU-Sim PTX:    immediate post dominator      @  PC=0x1c8 (_1.ptx:134) add.s32 %r11, %r11, 1;
GPGPU-Sim PTX:  5 (potential) branch divergence @  PC=0x1e0 (_1.ptx:137) @%p5 bra $Lt_0_4098;
GPGPU-Sim PTX:    immediate post dominator      @  PC=0x1e8 (_1.ptx:141) exit;
GPGPU-Sim PTX: ... end of reconvergence points for _Z6KernelP4NodePiPbS2_S1_S2_i
GPGPU-Sim PTX: ... done pre-decoding instructions for '_Z6KernelP4NodePiPbS2_S1_S2_i'.
GPGPU-Sim PTX: finished parsing EMBEDDED .ptx file _1.ptx
Adding _cuobjdump_2.ptx with cubin handle 1
GPGPU-Sim PTX: extracting embedded .ptx to temporary file "_ptx_W1dHNX"
Running: cat _ptx_W1dHNX | sed 's/.version 1.5/.version 1.4/' | sed 's/, texmode_independent//' | sed 's/\(\.extern \.const\[1\] .b8 \w\+\)\[\]/\1\[1\]/' | sed 's/const\[.\]/const\[0\]/g' > _ptx2_HYnKF1
GPGPU-Sim PTX: generating ptxinfo using "$CUDA_INSTALL_PATH/bin/ptxas --gpu-name=sm_20 -v _ptx2_HYnKF1 --output-file  /dev/null 2> _ptx_W1dHNXinfo"
GPGPU-Sim PTX: Kernel '_Z6KernelP4NodePiPbS2_S1_S2_i' : regs=18, lmem=0, smem=0, cmem=84
GPGPU-Sim PTX: removing ptxinfo using "rm -f _ptx_W1dHNX _ptx2_HYnKF1 _ptx_W1dHNXinfo"
GPGPU-Sim PTX: loading globals with explicit initializers... 
GPGPU-Sim PTX: finished loading globals (0 bytes total).
GPGPU-Sim PTX: loading constants with explicit initializers...  done.
Reading File
Input file: ./data/graph4096.txt
Read File
Copied Everything to GPU memory

GPGPU-Sim PTX: cudaLaunch for 0x0x4037f0 (mode=performance simulation) on stream 0
GPGPU-Sim PTX: pushing kernel '_Z6KernelP4NodePiPbS2_S1_S2_i' to stream 0, gridDim= (16,1,1) blockDim = (256,1,1) 
kernel '_Z6KernelP4NodePiPbS2_S1_S2_i' transfer to GPU hardware scheduler
GPGPU-Sim uArch: Shader 1 bind to kernel 1 '_Z6KernelP4NodePiPbS2_S1_S2_i'
GPGPU-Sim uArch: CTA/core = 6, limited by: threads regs
GPGPU-Sim uArch: core:  1, cta: 0 initialized @(1,0)
GPGPU-Sim uArch: Shader 2 bind to kernel 1 '_Z6KernelP4NodePiPbS2_S1_S2_i'
GPGPU-Sim uArch: core:  2, cta: 0 initialized @(1,0)
GPGPU-Sim uArch: Shader 3 bind to kernel 1 '_Z6KernelP4NodePiPbS2_S1_S2_i'
GPGPU-Sim uArch: core:  3, cta: 0 initialized @(1,0)
GPGPU-Sim uArch: Shader 4 bind to kernel 1 '_Z6KernelP4NodePiPbS2_S1_S2_i'
GPGPU-Sim uArch: core:  4, cta: 0 initialized @(1,0)
GPGPU-Sim uArch: Shader 5 bind to kernel 1 '_Z6KernelP4NodePiPbS2_S1_S2_i'
GPGPU-Sim uArch: core:  5, cta: 0 initialized @(1,0)
GPGPU-Sim uArch: Shader 6 bind to kernel 1 '_Z6KernelP4NodePiPbS2_S1_S2_i'
GPGPU-Sim uArch: core:  6, cta: 0 initialized @(1,0)
GPGPU-Sim uArch: Shader 7 bind to kernel 1 '_Z6KernelP4NodePiPbS2_S1_S2_i'
GPGPU-Sim uArch: core:  7, cta: 0 initialized @(1,0)
GPGPU-Sim uArch: Shader 8 bind to kernel 1 '_Z6KernelP4NodePiPbS2_S1_S2_i'
GPGPU-Sim uArch: core:  8, cta: 0 initialized @(1,0)
GPGPU-Sim uArch: Shader 9 bind to kernel 1 '_Z6KernelP4NodePiPbS2_S1_S2_i'
GPGPU-Sim uArch: core:  9, cta: 0 initialized @(1,0)
GPGPU-Sim uArch: Shader 10 bind to kernel 1 '_Z6KernelP4NodePiPbS2_S1_S2_i'
GPGPU-Sim uArch: core: 10, cta: 0 initialized @(1,0)
GPGPU-Sim uArch: Shader 11 bind to kernel 1 '_Z6KernelP4NodePiPbS2_S1_S2_i'
GPGPU-Sim uArch: core: 11, cta: 0 initialized @(1,0)
GPGPU-Sim uArch: Shader 12 bind to kernel 1 '_Z6KernelP4NodePiPbS2_S1_S2_i'
GPGPU-Sim uArch: core: 12, cta: 0 initialized @(1,0)
GPGPU-Sim uArch: Shader 13 bind to kernel 1 '_Z6KernelP4NodePiPbS2_S1_S2_i'
GPGPU-Sim uArch: core: 13, cta: 0 initialized @(1,0)
GPGPU-Sim uArch: Shader 14 bind to kernel 1 '_Z6KernelP4NodePiPbS2_S1_S2_i'
GPGPU-Sim uArch: core: 14, cta: 0 initialized @(1,0)
GPGPU-Sim uArch: Shader 0 bind to kernel 1 '_Z6KernelP4NodePiPbS2_S1_S2_i'
GPGPU-Sim uArch: core:  0, cta: 0 initialized @(1,0)
GPGPU-Sim uArch: core:  1, cta: 1 initialized @(2,0)
GPGPU-Sim uArch: cycles simulated: 500  inst.: 16384 (ipc=32.8) sim_rate=16384 (inst/sec) elapsed = 0:0:00:01 / Mon May 22 07:34:26 2017
GPGPU-Sim uArch: Shader 2 finished CTA #0 (1164,0), 0 CTAs running
GPGPU-Sim uArch: Shader 2 empty (release kernel 1 '_Z6KernelP4NodePiPbS2_S1_S2_i').
GPGPU-Sim uArch: Shader 4 finished CTA #0 (1176,0), 0 CTAs running
GPGPU-Sim uArch: Shader 4 empty (release kernel 1 '_Z6KernelP4NodePiPbS2_S1_S2_i').
GPGPU-Sim uArch: Shader 1 finished CTA #1 (1177,0), 1 CTAs running
GPGPU-Sim uArch: Shader 0 finished CTA #0 (1182,0), 0 CTAs running
GPGPU-Sim uArch: Shader 0 empty (release kernel 1 '_Z6KernelP4NodePiPbS2_S1_S2_i').
GPGPU-Sim uArch: Shader 5 finished CTA #0 (1188,0), 0 CTAs running
GPGPU-Sim uArch: Shader 5 empty (release kernel 1 '_Z6KernelP4NodePiPbS2_S1_S2_i').
GPGPU-Sim uArch: Shader 3 finished CTA #0 (1194,0), 0 CTAs running
GPGPU-Sim uArch: Shader 3 empty (release kernel 1 '_Z6KernelP4NodePiPbS2_S1_S2_i').
GPGPU-Sim uArch: Shader 6 finished CTA #0 (1200,0), 0 CTAs running
GPGPU-Sim uArch: Shader 6 empty (release kernel 1 '_Z6KernelP4NodePiPbS2_S1_S2_i').
GPGPU-Sim uArch: Shader 7 finished CTA #0 (1206,0), 0 CTAs running
GPGPU-Sim uArch: Shader 7 empty (release kernel 1 '_Z6KernelP4NodePiPbS2_S1_S2_i').
GPGPU-Sim uArch: Shader 8 finished CTA #0 (1212,0), 0 CTAs running
GPGPU-Sim uArch: Shader 8 empty (release kernel 1 '_Z6KernelP4NodePiPbS2_S1_S2_i').
GPGPU-Sim uArch: Shader 9 finished CTA #0 (1218,0), 0 CTAs running
GPGPU-Sim uArch: Shader 9 empty (release kernel 1 '_Z6KernelP4NodePiPbS2_S1_S2_i').
GPGPU-Sim uArch: Shader 10 finished CTA #0 (1224,0), 0 CTAs running
GPGPU-Sim uArch: Shader 10 empty (release kernel 1 '_Z6KernelP4NodePiPbS2_S1_S2_i').
GPGPU-Sim uArch: Shader 11 finished CTA #0 (1230,0), 0 CTAs running
GPGPU-Sim uArch: Shader 11 empty (release kernel 1 '_Z6KernelP4NodePiPbS2_S1_S2_i').
GPGPU-Sim uArch: Shader 13 finished CTA #0 (1236,0), 0 CTAs running
GPGPU-Sim uArch: Shader 13 empty (release kernel 1 '_Z6KernelP4NodePiPbS2_S1_S2_i').
GPGPU-Sim uArch: Shader 14 finished CTA #0 (1242,0), 0 CTAs running
GPGPU-Sim uArch: Shader 14 empty (release kernel 1 '_Z6KernelP4NodePiPbS2_S1_S2_i').
GPGPU-Sim uArch: Shader 12 finished CTA #0 (1248,0), 0 CTAs running
GPGPU-Sim uArch: Shader 12 empty (release kernel 1 '_Z6KernelP4NodePiPbS2_S1_S2_i').
GPGPU-Sim uArch: cycles simulated: 1500  inst.: 57323 (ipc=38.2) sim_rate=28661 (inst/sec) elapsed = 0:0:00:02 / Mon May 22 07:34:27 2017
GPGPU-Sim uArch: cycles simulated: 5500  inst.: 57544 (ipc=10.5) sim_rate=19181 (inst/sec) elapsed = 0:0:00:03 / Mon May 22 07:34:28 2017
GPGPU-Sim uArch: Shader 1 finished CTA #0 (6497,0), 0 CTAs running
GPGPU-Sim uArch: Shader 1 empty (release kernel 1 '_Z6KernelP4NodePiPbS2_S1_S2_i').
GPGPU-Sim uArch: GPU detected kernel '_Z6KernelP4NodePiPbS2_S1_S2_i' finished on shader 1.
kernel_name = _Z6KernelP4NodePiPbS2_S1_S2_i 
kernel_launch_uid = 1 
gpu_sim_cycle = 6498
gpu_sim_insn = 57630
gpu_ipc =       8.8689
gpu_tot_sim_cycle = 6498
gpu_tot_sim_insn = 57630
gpu_tot_ipc =       8.8689
gpu_tot_issued_cta = 0
gpu_stall_dramfull = 283
gpu_stall_icnt2sh    = 148
gpu_total_sim_rate=19210

========= Core cache stats =========
L1I_cache:
	L1I_total_cache_accesses = 1566
	L1I_total_cache_misses = 257
	L1I_total_cache_miss_rate = 0.1641
	L1I_total_cache_pending_hits = 0
	L1I_total_cache_reservation_fails = 0
L1D_cache:
	L1D_cache_core[0]: Access = 8, Miss = 2, Miss_rate = 0.250, Pending_hits = 6, Reservation_fails = 0
	L1D_cache_core[1]: Access = 100, Miss = 46, Miss_rate = 0.460, Pending_hits = 12, Reservation_fails = 0
	L1D_cache_core[2]: Access = 8, Miss = 2, Miss_rate = 0.250, Pending_hits = 6, Reservation_fails = 0
	L1D_cache_core[3]: Access = 8, Miss = 2, Miss_rate = 0.250, Pending_hits = 6, Reservation_fails = 0
	L1D_cache_core[4]: Access = 8, Miss = 2, Miss_rate = 0.250, Pending_hits = 6, Reservation_fails = 0
	L1D_cache_core[5]: Access = 8, Miss = 2, Miss_rate = 0.250, Pending_hits = 6, Reservation_fails = 0
	L1D_cache_core[6]: Access = 8, Miss = 2, Miss_rate = 0.250, Pending_hits = 6, Reservation_fails = 0
	L1D_cache_core[7]: Access = 8, Miss = 2, Miss_rate = 0.250, Pending_hits = 6, Reservation_fails = 0
	L1D_cache_core[8]: Access = 8, Miss = 2, Miss_rate = 0.250, Pending_hits = 6, Reservation_fails = 0
	L1D_cache_core[9]: Access = 8, Miss = 2, Miss_rate = 0.250, Pending_hits = 6, Reservation_fails = 0
	L1D_cache_core[10]: Access = 8, Miss = 2, Miss_rate = 0.250, Pending_hits = 6, Reservation_fails = 0
	L1D_cache_core[11]: Access = 8, Miss = 2, Miss_rate = 0.250, Pending_hits = 6, Reservation_fails = 0
	L1D_cache_core[12]: Access = 8, Miss = 2, Miss_rate = 0.250, Pending_hits = 6, Reservation_fails = 0
	L1D_cache_core[13]: Access = 8, Miss = 2, Miss_rate = 0.250, Pending_hits = 6, Reservation_fails = 0
	L1D_cache_core[14]: Access = 8, Miss = 2, Miss_rate = 0.250, Pending_hits = 6, Reservation_fails = 0
	L1D_total_cache_accesses = 212
	L1D_total_cache_misses = 74
	L1D_total_cache_miss_rate = 0.3491
	L1D_total_cache_pending_hits = 96
	L1D_total_cache_reservation_fails = 0
	L1D_cache_data_port_util = 0.002
	L1D_cache_fill_port_util = 0.002
L1C_cache:
	L1C_total_cache_accesses = 279
	L1C_total_cache_misses = 128
	L1C_total_cache_miss_rate = 0.4588
	L1C_total_cache_pending_hits = 0
	L1C_total_cache_reservation_fails = 0
L1T_cache:
	L1T_total_cache_accesses = 0
	L1T_total_cache_misses = 0
	L1T_total_cache_pending_hits = 0
	L1T_total_cache_reservation_fails = 0

Total_core_cache_stats:
	Total_core_cache_stats_breakdown[GLOBAL_ACC_R][HIT] = 39
	Total_core_cache_stats_breakdown[GLOBAL_ACC_R][HIT_RESERVED] = 96
	Total_core_cache_stats_breakdown[GLOBAL_ACC_R][MISS] = 45
	Total_core_cache_stats_breakdown[CONST_ACC_R][HIT] = 151
	Total_core_cache_stats_breakdown[CONST_ACC_R][MISS] = 128
	Total_core_cache_stats_breakdown[GLOBAL_ACC_W][HIT] = 3
	Total_core_cache_stats_breakdown[GLOBAL_ACC_W][MISS] = 29
	Total_core_cache_stats_breakdown[INST_ACC_R][HIT] = 1309
	Total_core_cache_stats_breakdown[INST_ACC_R][MISS] = 257
Shader 0 warp_id issue ditsribution:
warp_id:
0, 1, 2, 3, 4, 5, 6, 7, 
distro:
15, 15, 15, 15, 15, 15, 15, 15, 
gpgpu_n_tot_thrd_icount = 71008
gpgpu_n_tot_w_icount = 2219
gpgpu_n_stall_shd_mem = 0
gpgpu_n_mem_read_local = 0
gpgpu_n_mem_write_local = 0
gpgpu_n_mem_read_global = 45
gpgpu_n_mem_write_global = 32
gpgpu_n_mem_texture = 0
gpgpu_n_mem_const = 15
gpgpu_n_load_insn  = 4148
gpgpu_n_store_insn = 32
gpgpu_n_shmem_insn = 0
gpgpu_n_tex_insn = 0
gpgpu_n_const_mem_insn = 0
gpgpu_n_param_mem_insn = 8215
gpgpu_n_shmem_bkconflict = 0
gpgpu_n_cache_bkconflict = 0
gpgpu_n_intrawarp_mshr_merge = 0
gpgpu_n_cmem_portconflict = 0
gpgpu_stall_shd_mem[c_mem][bk_conf] = 0
gpgpu_stall_shd_mem[c_mem][mshr_rc] = 0
gpgpu_stall_shd_mem[c_mem][icnt_rc] = 0
gpgpu_stall_shd_mem[c_mem][data_port_stall] = 0
gpgpu_stall_shd_mem[t_mem][mshr_rc] = 0
gpgpu_stall_shd_mem[t_mem][icnt_rc] = 0
gpgpu_stall_shd_mem[t_mem][data_port_stall] = 0
gpgpu_stall_shd_mem[s_mem][bk_conf] = 0
gpgpu_stall_shd_mem[gl_mem][bk_conf] = 0
gpgpu_stall_shd_mem[gl_mem][coal_stall] = 0
gpgpu_stall_shd_mem[gl_mem][data_port_stall] = 0
gpgpu_stall_shd_mem[g_mem_ld][mshr_rc] = 0
gpgpu_stall_shd_mem[g_mem_ld][icnt_rc] = 0
gpgpu_stall_shd_mem[g_mem_ld][wb_icnt_rc] = 0
gpgpu_stall_shd_mem[g_mem_ld][wb_rsrv_fail] = 0
gpgpu_stall_shd_mem[g_mem_st][mshr_rc] = 0
gpgpu_stall_shd_mem[g_mem_st][icnt_rc] = 0
gpgpu_stall_shd_mem[g_mem_st][wb_icnt_rc] = 0
gpgpu_stall_shd_mem[g_mem_st][wb_rsrv_fail] = 0
gpgpu_stall_shd_mem[l_mem_ld][mshr_rc] = 0
gpgpu_stall_shd_mem[l_mem_ld][icnt_rc] = 0
gpgpu_stall_shd_mem[l_mem_ld][wb_icnt_rc] = 0
gpgpu_stall_shd_mem[l_mem_ld][wb_rsrv_fail] = 0
gpgpu_stall_shd_mem[l_mem_st][mshr_rc] = 0
gpgpu_stall_shd_mem[l_mem_st][icnt_rc] = 0
gpgpu_stall_shd_mem[l_mem_ld][wb_icnt_rc] = 0
gpgpu_stall_shd_mem[l_mem_ld][wb_rsrv_fail] = 0
gpu_reg_bank_conflict_stalls = 0
Warp Occupancy Distribution:
Stall:32	W0_Idle:23942	W0_Scoreboard:20671	W1:299	W2:0	W3:0	W4:0	W5:0	W6:0	W7:0	W8:0	W9:0	W10:0	W11:0	W12:0	W13:0	W14:0	W15:0	W16:0	W17:0	W18:0	W19:0	W20:0	W21:0	W22:0	W23:0	W24:0	W25:0	W26:0	W27:0	W28:0	W29:0	W30:0	W31:0	W32:1920
traffic_breakdown_coretomem[CONST_ACC_R] = 120 {8:15,}
traffic_breakdown_coretomem[GLOBAL_ACC_R] = 360 {8:45,}
traffic_breakdown_coretomem[GLOBAL_ACC_W] = 1280 {40:32,}
traffic_breakdown_coretomem[INST_ACC_R] = 256 {8:32,}
traffic_breakdown_memtocore[CONST_ACC_R] = 1080 {72:15,}
traffic_breakdown_memtocore[GLOBAL_ACC_R] = 6120 {136:45,}
traffic_breakdown_memtocore[GLOBAL_ACC_W] = 256 {8:32,}
traffic_breakdown_memtocore[INST_ACC_R] = 4352 {136:32,}
maxmrqlatency = 9 
maxdqlatency = 0 
maxmflatency = 278 
averagemflatency = 238 
max_icnt2mem_latency = 36 
max_icnt2sh_latency = 6497 
mrq_lat_table:60 	0 	2 	12 	0 	0 	0 	0 	0 	0 	0 	0 	0 	0 	0 	0 	0 	0 	0 	0 	0 	0 	0 	0 	0 	0 	0 	0 	0 	0 	0 	0 	
dq_lat_table:0 	0 	0 	0 	0 	0 	0 	0 	0 	0 	0 	0 	0 	0 	0 	0 	0 	0 	0 	0 	0 	0 	0 	0 	0 	0 	0 	0 	0 	0 	0 	0 	
mf_lat_table:0 	0 	0 	0 	0 	0 	0 	38 	54 	0 	0 	0 	0 	0 	0 	0 	0 	0 	0 	0 	0 	0 	0 	0 	0 	0 	0 	0 	0 	0 	0 	0 	
icnt2mem_lat_table:0 	0 	0 	113 	8 	3 	0 	0 	0 	0 	0 	0 	0 	0 	0 	0 	0 	0 	0 	0 	0 	0 	0 	0 	
icnt2sh_lat_table:0 	0 	0 	46 	14 	0 	0 	0 	0 	0 	2 	11 	19 	0 	0 	0 	0 	0 	0 	0 	0 	0 	0 	0 	
mf_lat_pw_table:0 	0 	0 	0 	0 	0 	0 	8 	2 	0 	0 	0 	0 	0 	0 	0 	0 	0 	0 	0 	0 	0 	0 	0 	0 	0 	0 	0 	0 	0 	0 	0 	
maximum concurrent accesses to same row:
dram[0]:         1         0         0         0         0         0         0         0         0         0         0         0         0         0         0         0 
dram[1]:         0         0         0         0         0         0         0         0         0         0         0         0         0         0         0         0 
dram[2]:         0         0         0         0         0         0         0         0         0         0         0         0         0         0         0         0 
dram[3]:         0         0         0         0         0         0         0         0         0         0         0         0         0         0         0         0 
dram[4]:         0         0         0         0         0         0         0         0         0         0         0         0         0         0         0         0 
dram[5]:         0         0         0         0         0         0         0         0         0         0         0         0         0         0         0         0 
maximum service time to same row:
dram[0]:       596         0         0         0         0         0         0         0         0         0       869       841         0         0         0         0 
dram[1]:      1113         0         0         0         0         0         0         0         0         0       872       837         0         0         0         0 
dram[2]:         0         0         0         0         0      1447         0         0         0         0       876       844         0         0         0         0 
dram[3]:         0         0         0         0         0         0         0         0         0         0       881       857         0         0         0         0 
dram[4]:         0         0         0         0         0         0      2021         0         0         0       832       860         0         0         0         0 
dram[5]:         0         0         0         0         0         0         0         0         0         0       849       865         0         0         0         0 
average row accesses per activate:
dram[0]:  1.000000      -nan      -nan      -nan      -nan      -nan      -nan      -nan      -nan      -nan  4.000000  6.000000      -nan      -nan      -nan      -nan 
dram[1]:  2.000000      -nan      -nan      -nan      -nan      -nan      -nan      -nan      -nan      -nan  7.000000  4.000000      -nan      -nan      -nan      -nan 
dram[2]:      -nan      -nan      -nan      -nan      -nan  1.000000      -nan      -nan      -nan      -nan  5.000000  5.000000      -nan      -nan      -nan      -nan 
dram[3]:      -nan      -nan      -nan      -nan      -nan      -nan      -nan      -nan      -nan      -nan  6.000000  8.000000      -nan      -nan      -nan      -nan 
dram[4]:      -nan      -nan      -nan      -nan      -nan      -nan  1.000000      -nan      -nan      -nan  7.000000  4.000000      -nan      -nan      -nan      -nan 
dram[5]:      -nan      -nan      -nan      -nan      -nan      -nan      -nan      -nan      -nan      -nan  6.000000  5.000000      -nan      -nan      -nan      -nan 
average row locality = 74/18 = 4.111111
number of total memory accesses made:
dram[0]:         0         0         0         0         0         0         0         0         0         0         0         0         0         0         0         0 
dram[1]:         0         0         0         0         0         0         0         0         0         0         0         0         0         0         0         0 
dram[2]:         0         0         0         0         0         0         0         0         0         0         0         0         0         0         0         0 
dram[3]:         0         0         0         0         0         0         0         0         0         0         0         0         0         0         0         0 
dram[4]:         0         0         0         0         0         0         0         0         0         0         0         0         0         0         0         0 
dram[5]:         0         0         0         0         0         0         0         0         0         0         0         0         0         0         0         0 
total accesses: 0
min_bank_accesses = 0!
min_chip_accesses = 0!
number of total read accesses:
dram[0]:         3         0         0         0         0         0         0         0         0         0         4         5         0         0         0         0 
dram[1]:         2         0         0         0         0         0         0         0         0         0         5         4         0         0         0         0 
dram[2]:         0         0         0         0         0         1         0         0         0         0         4         4         0         0         0         0 
dram[3]:         0         0         0         0         0         0         0         0         0         0         4         5         0         0         0         0 
dram[4]:         0         0         0         0         0         0         1         0         0         0         6         4         0         0         0         0 
dram[5]:         0         0         0         0         0         0         0         0         0         0         6         4         0         0         0         0 
total reads: 62
min_bank_accesses = 0!
chip skew: 12/9 = 1.33
number of total write accesses:
dram[0]:         0         0         0         0         0         0         0         0         0         0         0         1         0         0         0         0 
dram[1]:         0         0         0         0         0         0         0         0         0         0         2         0         0         0         0         0 
dram[2]:         0         0         0         0         0         0         0         0         0         0         1         1         0         0         0         0 
dram[3]:         0         0         0         0         0         0         0         0         0         0         2         3         0         0         0         0 
dram[4]:         0         0         0         0         0         0         0         0         0         0         1         0         0         0         0         0 
dram[5]:         0         0         0         0         0         0         0         0         0         0         0         1         0         0         0         0 
total reads: 12
min_bank_accesses = 0!
chip skew: 5/1 = 5.00
average mf latency per bank:
dram[0]:       1296    none      none      none      none      none      none      none      none      none         298       266    none      none      none      none  
dram[1]:          0    none      none      none      none      none      none      none      none      none         224       299    none      none      none      none  
dram[2]:     none      none      none      none      none         268    none      none      none      none         208       236    none      none      none      none  
dram[3]:     none      none      none      none      none      none      none      none      none      none         171       177    none      none      none      none  
dram[4]:     none      none      none      none      none      none         268    none      none      none         443       298    none      none      none      none  
dram[5]:     none      none      none      none      none      none      none      none      none      none         262       208    none      none      none      none  
maximum mf latency per bank:
dram[0]:        278         0         0         0         0         0         0         0         0         0       269       269         0         0         0         0
dram[1]:          0         0         0         0         0         0         0         0         0         0       269       269         0         0         0         0
dram[2]:          0         0         0         0         0       268         0         0         0         0       269       270         0         0         0         0
dram[3]:          0         0         0         0         0         0         0         0         0         0       269       269         0         0         0         0
dram[4]:          0         0         0         0         0         0       268         0         0         0       270       270         0         0         0         0
dram[5]:          0         0         0         0         0         0         0         0         0         0       269       270         0         0         0         0

Number of Memory Banks Accessed per Memory Operation per Warp (from 0):
0	0	0	0	0	0	0	0	0	0	0	0	0	0	0	0	0	00	0	0	0	0	0	0	0	0	0	0	0	0	0	0	0	0	00	0	0	0	0	0	0	0	0	0	0	0	0	0	0	0	0	00	0	0	0	0	0	0	0	0	0	0	0	0	0	0	0	0	00	0	0	0	0	0	0	0	0	0	0	0	0	0	0	0	0	00	0	0	0	0	0	
Average # of Memory Banks Accessed per Memory Operation per Warp=-nan

position of mrq chosen
0	0	0	0	0	0	0	0	0	0	0	0	0	0	0	0	

average position of mrq chosen = -nan
Memory Partition 0: 
Cache L2_bank_000:
MSHR contents

Cache L2_bank_001:
MSHR contents

In Dram Latency Queue (total = 0): 
DRAM[0]: 16 bks, busW=4 BL=8 CL=12, tRRD=2 tCCD=6, tRCD=12 tRAS=28 tRP=12 tRC=40
n_cmd=8577 n_nop=8545 n_act=5 n_pre=2 n_req=13 n_rd=24 n_write=1 bw_util=0.00583
n_activity=277 dram_eff=0.1805
bk0: 6a 8504i bk1: 0a 8574i bk2: 0a 8576i bk3: 0a 8576i bk4: 0a 8576i bk5: 0a 8577i bk6: 0a 8579i bk7: 0a 8579i bk8: 0a 8579i bk9: 0a 8579i bk10: 8a 8548i bk11: 10a 8528i bk12: 0a 8575i bk13: 0a 8576i bk14: 0a 8576i bk15: 0a 8576i 
dram_util_bins: 0 0 0 0 0 0 0 0 0 0
dram_eff_bins: 0 0 0 0 0 0 0 0 0 0
mrqq: max=1 avg=0.00349773
Memory Partition 1: 
Cache L2_bank_002:
MSHR contents

Cache L2_bank_003:
MSHR contents

In Dram Latency Queue (total = 0): 
DRAM[1]: 16 bks, busW=4 BL=8 CL=12, tRRD=2 tCCD=6, tRCD=12 tRAS=28 tRP=12 tRC=40
n_cmd=8577 n_nop=8550 n_act=3 n_pre=0 n_req=13 n_rd=22 n_write=2 bw_util=0.005596
n_activity=209 dram_eff=0.2297
bk0: 4a 8556i bk1: 0a 8576i bk2: 0a 8576i bk3: 0a 8576i bk4: 0a 8576i bk5: 0a 8577i bk6: 0a 8578i bk7: 0a 8579i bk8: 0a 8579i bk9: 0a 8579i bk10: 10a 8522i bk11: 8a 8544i bk12: 0a 8575i bk13: 0a 8576i bk14: 0a 8576i bk15: 0a 8576i 
dram_util_bins: 0 0 0 0 0 0 0 0 0 0
dram_eff_bins: 0 0 0 0 0 0 0 0 0 0
mrqq: max=1 avg=0.00221523
Memory Partition 2: 
Cache L2_bank_004:
MSHR contents

Cache L2_bank_005:
MSHR contents

In Dram Latency Queue (total = 0): 
DRAM[2]: 16 bks, busW=4 BL=8 CL=12, tRRD=2 tCCD=6, tRCD=12 tRAS=28 tRP=12 tRC=40
n_cmd=8577 n_nop=8554 n_act=3 n_pre=0 n_req=11 n_rd=18 n_write=2 bw_util=0.004664
n_activity=202 dram_eff=0.198
bk0: 0a 8577i bk1: 0a 8578i bk2: 0a 8578i bk3: 0a 8578i bk4: 0a 8578i bk5: 2a 8561i bk6: 0a 8576i bk7: 0a 8577i bk8: 0a 8578i bk9: 0a 8578i bk10: 8a 8536i bk11: 8a 8534i bk12: 0a 8574i bk13: 0a 8575i bk14: 0a 8576i bk15: 0a 8577i 
dram_util_bins: 0 0 0 0 0 0 0 0 0 0
dram_eff_bins: 0 0 0 0 0 0 0 0 0 0
mrqq: max=1 avg=0.00233182
Memory Partition 3: 
Cache L2_bank_006:
MSHR contents
MSHR: tag=0x80022300, atomic=0 1 entries : 0x7f39a8f24420 :  mf: uid=  2069, sid01:w00, part=3, addr=0x80022300, load , size=32, unknown  status = IN_PARTITION_DRAM (6495), 

Cache L2_bank_007:
MSHR contents

In Dram Latency Queue (total = 0): 
DRAM[3]: 16 bks, busW=4 BL=8 CL=12, tRRD=2 tCCD=6, tRCD=12 tRAS=28 tRP=12 tRC=40
n_cmd=8577 n_nop=8552 n_act=2 n_pre=0 n_req=14 n_rd=18 n_write=5 bw_util=0.005363
n_activity=194 dram_eff=0.2371
bk0: 0a 8576i bk1: 0a 8577i bk2: 0a 8577i bk3: 0a 8577i bk4: 0a 8577i bk5: 0a 8577i GPGPU-Sim: synchronize waiting for inactive GPU simulation
bk6: 0a 8577i bk7: 0a 8578i bk8: 0a 8579i bk9: 0a 8579i bk10: 8a 8526i bk11: 10a 8511i bk12: 0a 8575i bk13: 0a 8575i bk14: 0a 8576i bk15: 0a 8576i 
dram_util_bins: 0 0 0 0 0 0 0 0 0 0
dram_eff_bins: 0 0 0 0 0 0 0 0 0 0
mrqq: max=1 avg=0.00221523
Memory Partition 4: 
Cache L2_bank_008:
MSHR contents

Cache L2_bank_009:
MSHR contents

In Dram Latency Queue (total = 0): 
DRAM[4]: 16 bks, busW=4 BL=8 CL=12, tRRD=2 tCCD=6, tRCD=12 tRAS=28 tRP=12 tRC=40
n_cmd=8577 n_nop=8551 n_act=3 n_pre=0 n_req=12 n_rd=22 n_write=1 bw_util=0.005363
n_activity=202 dram_eff=0.2277
bk0: 0a 8577i bk1: 0a 8578i bk2: 0a 8578i bk3: 0a 8578i bk4: 0a 8578i bk5: 0a 8579i bk6: 2a 8562i bk7: 0a 8577i bk8: 0a 8577i bk9: 0a 8577i bk10: 12a 8528i bk11: 8a 8545i bk12: 0a 8574i bk13: 0a 8575i bk14: 0a 8576i bk15: 0a 8576i 
dram_util_bins: 0 0 0 0 0 0 0 0 0 0
dram_eff_bins: 0 0 0 0 0 0 0 0 0 0
mrqq: max=1 avg=0.00233182
Memory Partition 5: 
Cache L2_bank_010:
MSHR contents

Cache L2_bank_011:
MSHR contents

In Dram Latency Queue (total = 0): 
DRAM[5]: 16 bks, busW=4 BL=8 CL=12, tRRD=2 tCCD=6, tRCD=12 tRAS=28 tRP=12 tRC=40
n_cmd=8577 n_nop=8554 n_act=2 n_pre=0 n_req=11 n_rd=20 n_write=1 bw_util=0.004897
n_activity=145 dram_eff=0.2897
bk0: 0a 8576i bk1: 0a 8577i bk2: 0a 8577i bk3: 0a 8577i bk4: 0a 8577i bk5: 0a 8578i bk6: 0a 8578i bk7: 0a 8578i bk8: 0a 8578i bk9: 0a 8578i bk10: 12a 8539i bk11: 8a 8535i bk12: 0a 8575i bk13: 0a 8576i bk14: 0a 8576i bk15: 0a 8576i 
dram_util_bins: 0 0 0 0 0 0 0 0 0 0
dram_eff_bins: 0 0 0 0 0 0 0 0 0 0
mrqq: max=1 avg=0.00244841

========= L2 cache stats =========
L2_cache_bank[0]: Access = 36, Miss = 7, Miss_rate = 0.194, Pending_hits = 6, Reservation_fails = 223
L2_cache_bank[1]: Access = 7, Miss = 5, Miss_rate = 0.714, Pending_hits = 0, Reservation_fails = 0
L2_cache_bank[2]: Access = 23, Miss = 7, Miss_rate = 0.304, Pending_hits = 3, Reservation_fails = 108
L2_cache_bank[3]: Access = 5, Miss = 4, Miss_rate = 0.800, Pending_hits = 0, Reservation_fails = 0
L2_cache_bank[4]: Access = 4, Miss = 4, Miss_rate = 1.000, Pending_hits = 0, Reservation_fails = 0
L2_cache_bank[5]: Access = 6, Miss = 5, Miss_rate = 0.833, Pending_hits = 0, Reservation_fails = 0
L2_cache_bank[6]: Access = 4, Miss = 4, Miss_rate = 1.000, Pending_hits = 0, Reservation_fails = 0
L2_cache_bank[7]: Access = 6, Miss = 5, Miss_rate = 0.833, Pending_hits = 0, Reservation_fails = 0
L2_cache_bank[8]: Access = 18, Miss = 7, Miss_rate = 0.389, Pending_hits = 0, Reservation_fails = 0
L2_cache_bank[9]: Access = 5, Miss = 4, Miss_rate = 0.800, Pending_hits = 0, Reservation_fails = 0
L2_cache_bank[10]: Access = 6, Miss = 6, Miss_rate = 1.000, Pending_hits = 0, Reservation_fails = 0
L2_cache_bank[11]: Access = 4, Miss = 4, Miss_rate = 1.000, Pending_hits = 0, Reservation_fails = 0
L2_total_cache_accesses = 124
L2_total_cache_misses = 62
L2_total_cache_miss_rate = 0.5000
L2_total_cache_pending_hits = 9
L2_total_cache_reservation_fails = 331
L2_total_cache_breakdown:
	L2_cache_stats_breakdown[GLOBAL_ACC_R][MISS] = 45
	L2_cache_stats_breakdown[CONST_ACC_R][HIT] = 11
	L2_cache_stats_breakdown[CONST_ACC_R][HIT_RESERVED] = 3
	L2_cache_stats_breakdown[CONST_ACC_R][MISS] = 1
	L2_cache_stats_breakdown[CONST_ACC_R][RESERVATION_FAIL] = 107
	L2_cache_stats_breakdown[GLOBAL_ACC_W][HIT] = 20
	L2_cache_stats_breakdown[GLOBAL_ACC_W][MISS] = 12
	L2_cache_stats_breakdown[INST_ACC_R][HIT] = 22
	L2_cache_stats_breakdown[INST_ACC_R][HIT_RESERVED] = 6
	L2_cache_stats_breakdown[INST_ACC_R][MISS] = 4
	L2_cache_stats_breakdown[INST_ACC_R][RESERVATION_FAIL] = 224
L2_cache_data_port_util = 0.002
L2_cache_fill_port_util = 0.003

icnt_total_pkts_mem_to_simt=462
icnt_total_pkts_simt_to_mem=156
LD_mem_lat_dist  0 0 0 0 0 0 0 0 0 0 0 0 0 0 0 0 0 0 0 0 0 0 0 0 0 0 0
ST_mem_lat_dist  0 0 0 0 0 0 0 0 0 0 0 0 0 0 0 0 0 0 0 0 0 0 0 0 0 0 0
----------------------------Interconnect-DETAILS--------------------------------
Class 0:
Packet latency average = 10.1492
	minimum = 6
	maximum = 34
Network latency average = 9.20565
	minimum = 6
	maximum = 34
Slowest packet = 14
Flit latency average = 7.74434
	minimum = 6
	maximum = 34
Slowest flit = 14
Fragmentation average = 0
	minimum = 0
	maximum = 0
Injected packet rate average = 0.00141354
	minimum = 0.000615574 (at node 19)
	maximum = 0.00831025 (at node 1)
Accepted packet rate average = 0.00141354
	minimum = 0.000615574 (at node 19)
	maximum = 0.00831025 (at node 1)
Injected flit rate average = 0.00352245
	minimum = 0.000769468 (at node 0)
	maximum = 0.0224685 (at node 15)
Accepted flit rate average= 0.00352245
	minimum = 0.000769468 (at node 19)
	maximum = 0.0215451 (at node 1)
Injected packet length average = 2.49194
Accepted packet length average = 2.49194
Total in-flight flits = 0 (0 measured)
====== Overall Traffic Statistics ======
====== Traffic class 0 ======
Packet latency average = 10.1492 (1 samples)
	minimum = 6 (1 samples)
	maximum = 34 (1 samples)
Network latency average = 9.20565 (1 samples)
	minimum = 6 (1 samples)
	maximum = 34 (1 samples)
Flit latency average = 7.74434 (1 samples)
	minimum = 6 (1 samples)
	maximum = 34 (1 samples)
Fragmentation average = 0 (1 samples)
	minimum = 0 (1 samples)
	maximum = 0 (1 samples)
Injected packet rate average = 0.00141354 (1 samples)
	minimum = 0.000615574 (1 samples)
	maximum = 0.00831025 (1 samples)
Accepted packet rate average = 0.00141354 (1 samples)
	minimum = 0.000615574 (1 samples)
	maximum = 0.00831025 (1 samples)
Injected flit rate average = 0.00352245 (1 samples)
	minimum = 0.000769468 (1 samples)
	maximum = 0.0224685 (1 samples)
Accepted flit rate average = 0.00352245 (1 samples)
	minimum = 0.000769468 (1 samples)
	maximum = 0.0215451 (1 samples)
Injected packet size average = 2.49194 (1 samples)
Accepted packet size average = 2.49194 (1 samples)
Hops average = 1 (1 samples)
----------------------------END-of-Interconnect-DETAILS-------------------------
GPGPU-Sim API: Stream Manager State


gpgpu_simulation_time = 0 days, 0 hrs, 0 min, 3 sec (3 sec)
gpgpu_simulation_rate = 19210 (inst/sec)
gpgpu_simulation_rate = 2166 (cycle/sec)
GPGPU-Sim: detected inactive GPU simulation thread

GPGPU-Sim PTX: cudaLaunch for 0x0x4037f0 (mode=performance simulation) on stream 0
GPGPU-Sim PTX: pushing kernel '_Z6KernelP4NodePiPbS2_S1_S2_i' to stream 0, gridDim= (16,1,1) blockDim = (256,1,1) 
kernel '_Z6KernelP4NodePiPbS2_S1_S2_i' transfer to GPU hardware scheduler
GPGPU-Sim uArch: Shader 2 bind to kernel 2 '_Z6KernelP4NodePiPbS2_S1_S2_i'
GPGPU-Sim uArch: core:  2, cta: 0 initialized @(1,6498)
GPGPU-Sim uArch: Shader 3 bind to kernel 2 '_Z6KernelP4NodePiPbS2_S1_S2_i'
GPGPU-Sim uArch: core:  3, cta: 0 initialized @(1,6498)
GPGPU-Sim uArch: Shader 4 bind to kernel 2 '_Z6KernelP4NodePiPbS2_S1_S2_i'
GPGPU-Sim uArch: core:  4, cta: 0 initialized @(1,6498)
GPGPU-Sim uArch: Shader 5 bind to kernel 2 '_Z6KernelP4NodePiPbS2_S1_S2_i'
GPGPU-Sim uArch: core:  5, cta: 0 initialized @(1,6498)
GPGPU-Sim uArch: Shader 6 bind to kernel 2 '_Z6KernelP4NodePiPbS2_S1_S2_i'
GPGPU-Sim uArch: core:  6, cta: 0 initialized @(1,6498)
GPGPU-Sim uArch: Shader 7 bind to kernel 2 '_Z6KernelP4NodePiPbS2_S1_S2_i'
GPGPU-Sim uArch: core:  7, cta: 0 initialized @(1,6498)
GPGPU-Sim uArch: Shader 8 bind to kernel 2 '_Z6KernelP4NodePiPbS2_S1_S2_i'
GPGPU-Sim uArch: core:  8, cta: 0 initialized @(1,6498)
GPGPU-Sim uArch: Shader 9 bind to kernel 2 '_Z6KernelP4NodePiPbS2_S1_S2_i'
GPGPU-Sim uArch: core:  9, cta: 0 initialized @(1,6498)
GPGPU-Sim uArch: Shader 10 bind to kernel 2 '_Z6KernelP4NodePiPbS2_S1_S2_i'
GPGPU-Sim uArch: core: 10, cta: 0 initialized @(1,6498)
GPGPU-Sim uArch: Shader 11 bind to kernel 2 '_Z6KernelP4NodePiPbS2_S1_S2_i'
GPGPU-Sim uArch: core: 11, cta: 0 initialized @(1,6498)
GPGPU-Sim uArch: Shader 12 bind to kernel 2 '_Z6KernelP4NodePiPbS2_S1_S2_i'
GPGPU-Sim uArch: core: 12, cta: 0 initialized @(1,6498)
GPGPU-Sim uArch: Shader 13 bind to kernel 2 '_Z6KernelP4NodePiPbS2_S1_S2_i'
GPGPU-Sim uArch: core: 13, cta: 0 initialized @(1,6498)
GPGPU-Sim uArch: Shader 14 bind to kernel 2 '_Z6KernelP4NodePiPbS2_S1_S2_i'
GPGPU-Sim uArch: core: 14, cta: 0 initialized @(1,6498)
GPGPU-Sim uArch: Shader 0 bind to kernel 2 '_Z6KernelP4NodePiPbS2_S1_S2_i'
GPGPU-Sim uArch: core:  0, cta: 0 initialized @(1,6498)
GPGPU-Sim uArch: Shader 1 bind to kernel 2 '_Z6KernelP4NodePiPbS2_S1_S2_i'
GPGPU-Sim uArch: core:  1, cta: 0 initialized @(1,6498)
GPGPU-Sim uArch: core:  2, cta: 1 initialized @(2,6498)
GPGPU-Sim PTX: 100000 instructions simulated : ctaid=(14,0,0) tid=(52,0,0)
GPGPU-Sim uArch: Shader 5 finished CTA #0 (239,6498), 0 CTAs running
GPGPU-Sim uArch: Shader 5 empty (release kernel 2 '_Z6KernelP4NodePiPbS2_S1_S2_i').
GPGPU-Sim uArch: Shader 9 finished CTA #0 (239,6498), 0 CTAs running
GPGPU-Sim uArch: Shader 9 empty (release kernel 2 '_Z6KernelP4NodePiPbS2_S1_S2_i').
GPGPU-Sim uArch: Shader 12 finished CTA #0 (239,6498), 0 CTAs running
GPGPU-Sim uArch: Shader 12 empty (release kernel 2 '_Z6KernelP4NodePiPbS2_S1_S2_i').
GPGPU-Sim uArch: Shader 13 finished CTA #0 (239,6498), 0 CTAs running
GPGPU-Sim uArch: Shader 13 empty (release kernel 2 '_Z6KernelP4NodePiPbS2_S1_S2_i').
GPGPU-Sim uArch: Shader 14 finished CTA #0 (239,6498), 0 CTAs running
GPGPU-Sim uArch: Shader 14 empty (release kernel 2 '_Z6KernelP4NodePiPbS2_S1_S2_i').
GPGPU-Sim uArch: Shader 3 finished CTA #0 (243,6498), 0 CTAs running
GPGPU-Sim uArch: Shader 3 empty (release kernel 2 '_Z6KernelP4NodePiPbS2_S1_S2_i').
GPGPU-Sim uArch: Shader 0 finished CTA #0 (249,6498), 0 CTAs running
GPGPU-Sim uArch: Shader 0 empty (release kernel 2 '_Z6KernelP4NodePiPbS2_S1_S2_i').
GPGPU-Sim uArch: cycles simulated: 7498  inst.: 114828 (ipc=57.2) sim_rate=28707 (inst/sec) elapsed = 0:0:00:04 / Mon May 22 07:34:29 2017
GPGPU-Sim uArch: Shader 1 finished CTA #0 (2446,6498), 0 CTAs running
GPGPU-Sim uArch: Shader 1 empty (release kernel 2 '_Z6KernelP4NodePiPbS2_S1_S2_i').
GPGPU-Sim uArch: cycles simulated: 9498  inst.: 116212 (ipc=19.5) sim_rate=23242 (inst/sec) elapsed = 0:0:00:05 / Mon May 22 07:34:30 2017
GPGPU-Sim uArch: Shader 10 finished CTA #0 (3102,6498), 0 CTAs running
GPGPU-Sim uArch: Shader 10 empty (release kernel 2 '_Z6KernelP4NodePiPbS2_S1_S2_i').
GPGPU-Sim uArch: Shader 6 finished CTA #0 (3137,6498), 0 CTAs running
GPGPU-Sim uArch: Shader 6 empty (release kernel 2 '_Z6KernelP4NodePiPbS2_S1_S2_i').
GPGPU-Sim uArch: Shader 7 finished CTA #0 (3173,6498), 0 CTAs running
GPGPU-Sim uArch: Shader 7 empty (release kernel 2 '_Z6KernelP4NodePiPbS2_S1_S2_i').
GPGPU-Sim uArch: Shader 2 finished CTA #0 (3566,6498), 1 CTAs running
GPGPU-Sim uArch: Shader 11 finished CTA #0 (3684,6498), 0 CTAs running
GPGPU-Sim uArch: Shader 11 empty (release kernel 2 '_Z6KernelP4NodePiPbS2_S1_S2_i').
GPGPU-Sim uArch: Shader 2 finished CTA #1 (3985,6498), 0 CTAs running
GPGPU-Sim uArch: Shader 2 empty (release kernel 2 '_Z6KernelP4NodePiPbS2_S1_S2_i').
GPGPU-Sim uArch: Shader 8 finished CTA #0 (4331,6498), 0 CTAs running
GPGPU-Sim uArch: Shader 8 empty (release kernel 2 '_Z6KernelP4NodePiPbS2_S1_S2_i').
GPGPU-Sim uArch: Shader 4 finished CTA #0 (4524,6498), 0 CTAs running
GPGPU-Sim uArch: Shader 4 empty (release kernel 2 '_Z6KernelP4NodePiPbS2_S1_S2_i').
GPGPU-Sim uArch: GPU detected kernel '_Z6KernelP4NodePiPbS2_S1_S2_i' finished on shader 4.
kernel_name = _Z6KernelP4NodePiPbS2_S1_S2_i 
kernel_launch_uid = 2 
gpu_sim_cycle = 4525
gpu_sim_insn = 59234
gpu_ipc =      13.0904
gpu_tot_sim_cycle = 11023
gpu_tot_sim_insn = 116864
gpu_tot_ipc =      10.6018
gpu_tot_issued_cta = 0
gpu_stall_dramfull = 283
gpu_stall_icnt2sh    = 152
gpu_total_sim_rate=23372

========= Core cache stats =========
L1I_cache:
	L1I_total_cache_accesses = 3777
	L1I_total_cache_misses = 275
	L1I_total_cache_miss_rate = 0.0728
	L1I_total_cache_pending_hits = 0
	L1I_total_cache_reservation_fails = 0
L1D_cache:
	L1D_cache_core[0]: Access = 16, Miss = 4, Miss_rate = 0.250, Pending_hits = 12, Reservation_fails = 0
	L1D_cache_core[1]: Access = 146, Miss = 67, Miss_rate = 0.459, Pending_hits = 18, Reservation_fails = 0
	L1D_cache_core[2]: Access = 156, Miss = 72, Miss_rate = 0.462, Pending_hits = 18, Reservation_fails = 0
	L1D_cache_core[3]: Access = 16, Miss = 4, Miss_rate = 0.250, Pending_hits = 12, Reservation_fails = 0
	L1D_cache_core[4]: Access = 102, Miss = 46, Miss_rate = 0.451, Pending_hits = 12, Reservation_fails = 0
	L1D_cache_core[5]: Access = 16, Miss = 4, Miss_rate = 0.250, Pending_hits = 12, Reservation_fails = 0
	L1D_cache_core[6]: Access = 62, Miss = 29, Miss_rate = 0.468, Pending_hits = 12, Reservation_fails = 0
	L1D_cache_core[7]: Access = 54, Miss = 25, Miss_rate = 0.463, Pending_hits = 12, Reservation_fails = 0
	L1D_cache_core[8]: Access = 86, Miss = 41, Miss_rate = 0.477, Pending_hits = 12, Reservation_fails = 0
	L1D_cache_core[9]: Access = 16, Miss = 4, Miss_rate = 0.250, Pending_hits = 12, Reservation_fails = 0
	L1D_cache_core[10]: Access = 54, Miss = 25, Miss_rate = 0.463, Pending_hits = 12, Reservation_fails = 0
	L1D_cache_core[11]: Access = 108, Miss = 53, Miss_rate = 0.491, Pending_hits = 12, Reservation_fails = 0
	L1D_cache_core[12]: Access = 16, Miss = 4, Miss_rate = 0.250, Pending_hits = 12, Reservation_fails = 0
	L1D_cache_core[13]: Access = 16, Miss = 4, Miss_rate = 0.250, Pending_hits = 12, Reservation_fails = 0
	L1D_cache_core[14]: Access = 16, Miss = 4, Miss_rate = 0.250, Pending_hits = 12, Reservation_fails = 0
	L1D_total_cache_accesses = 880
	L1D_total_cache_misses = 386
	L1D_total_cache_miss_rate = 0.4386
	L1D_total_cache_pending_hits = 192
	L1D_total_cache_reservation_fails = 0
	L1D_cache_data_port_util = 0.006
	L1D_cache_fill_port_util = 0.003
L1C_cache:
	L1C_total_cache_accesses = 685
	L1C_total_cache_misses = 128
	L1C_total_cache_miss_rate = 0.1869
	L1C_total_cache_pending_hits = 0
	L1C_total_cache_reservation_fails = 0
L1T_cache:
	L1T_total_cache_accesses = 0
	L1T_total_cache_misses = 0
	L1T_total_cache_pending_hits = 0
	L1T_total_cache_reservation_fails = 0

Total_core_cache_stats:
	Total_core_cache_stats_breakdown[GLOBAL_ACC_R][HIT] = 285
	Total_core_cache_stats_breakdown[GLOBAL_ACC_R][HIT_RESERVED] = 192
	Total_core_cache_stats_breakdown[GLOBAL_ACC_R][MISS] = 171
	Total_core_cache_stats_breakdown[CONST_ACC_R][HIT] = 557
	Total_core_cache_stats_breakdown[CONST_ACC_R][MISS] = 128
	Total_core_cache_stats_breakdown[GLOBAL_ACC_W][HIT] = 17
	Total_core_cache_stats_breakdown[GLOBAL_ACC_W][MISS] = 215
	Total_core_cache_stats_breakdown[INST_ACC_R][HIT] = 3502
	Total_core_cache_stats_breakdown[INST_ACC_R][MISS] = 275
Shader 0 warp_id issue ditsribution:
warp_id:
0, 1, 2, 3, 4, 5, 6, 7, 
distro:
30, 30, 30, 30, 30, 30, 30, 30, 
gpgpu_n_tot_thrd_icount = 195808
gpgpu_n_tot_w_icount = 6119
gpgpu_n_stall_shd_mem = 0
gpgpu_n_mem_read_local = 0
gpgpu_n_mem_write_local = 0
gpgpu_n_mem_read_global = 171
gpgpu_n_mem_write_global = 232
gpgpu_n_mem_texture = 0
gpgpu_n_mem_const = 15
gpgpu_n_load_insn  = 8584
gpgpu_n_store_insn = 232
gpgpu_n_shmem_insn = 0
gpgpu_n_tex_insn = 0
gpgpu_n_const_mem_insn = 0
gpgpu_n_param_mem_insn = 16557
gpgpu_n_shmem_bkconflict = 0
gpgpu_n_cache_bkconflict = 0
gpgpu_n_intrawarp_mshr_merge = 0
gpgpu_n_cmem_portconflict = 0
gpgpu_stall_shd_mem[c_mem][bk_conf] = 0
gpgpu_stall_shd_mem[c_mem][mshr_rc] = 0
gpgpu_stall_shd_mem[c_mem][icnt_rc] = 0
gpgpu_stall_shd_mem[c_mem][data_port_stall] = 0
gpgpu_stall_shd_mem[t_mem][mshr_rc] = 0
gpgpu_stall_shd_mem[t_mem][icnt_rc] = 0
gpgpu_stall_shd_mem[t_mem][data_port_stall] = 0
gpgpu_stall_shd_mem[s_mem][bk_conf] = 0
gpgpu_stall_shd_mem[gl_mem][bk_conf] = 0
gpgpu_stall_shd_mem[gl_mem][coal_stall] = 0
gpgpu_stall_shd_mem[gl_mem][data_port_stall] = 0
gpgpu_stall_shd_mem[g_mem_ld][mshr_rc] = 0
gpgpu_stall_shd_mem[g_mem_ld][icnt_rc] = 0
gpgpu_stall_shd_mem[g_mem_ld][wb_icnt_rc] = 0
gpgpu_stall_shd_mem[g_mem_ld][wb_rsrv_fail] = 0
gpgpu_stall_shd_mem[g_mem_st][mshr_rc] = 0
gpgpu_stall_shd_mem[g_mem_st][icnt_rc] = 0
gpgpu_stall_shd_mem[g_mem_st][wb_icnt_rc] = 0
gpgpu_stall_shd_mem[g_mem_st][wb_rsrv_fail] = 0
gpgpu_stall_shd_mem[l_mem_ld][mshr_rc] = 0
gpgpu_stall_shd_mem[l_mem_ld][icnt_rc] = 0
gpgpu_stall_shd_mem[l_mem_ld][wb_icnt_rc] = 0
gpgpu_stall_shd_mem[l_mem_ld][wb_rsrv_fail] = 0
gpgpu_stall_shd_mem[l_mem_st][mshr_rc] = 0
gpgpu_stall_shd_mem[l_mem_st][icnt_rc] = 0
gpgpu_stall_shd_mem[l_mem_ld][wb_icnt_rc] = 0
gpgpu_stall_shd_mem[l_mem_ld][wb_rsrv_fail] = 0
gpu_reg_bank_conflict_stalls = 0
Warp Occupancy Distribution:
Stall:54	W0_Idle:54436	W0_Scoreboard:46423	W1:2279	W2:0	W3:0	W4:0	W5:0	W6:0	W7:0	W8:0	W9:0	W10:0	W11:0	W12:0	W13:0	W14:0	W15:0	W16:0	W17:0	W18:0	W19:0	W20:0	W21:0	W22:0	W23:0	W24:0	W25:0	W26:0	W27:0	W28:0	W29:0	W30:0	W31:0	W32:3840
traffic_breakdown_coretomem[CONST_ACC_R] = 120 {8:15,}
traffic_breakdown_coretomem[GLOBAL_ACC_R] = 1368 {8:171,}
traffic_breakdown_coretomem[GLOBAL_ACC_W] = 9280 {40:232,}
traffic_breakdown_coretomem[INST_ACC_R] = 368 {8:46,}
traffic_breakdown_memtocore[CONST_ACC_R] = 1080 {72:15,}
traffic_breakdown_memtocore[GLOBAL_ACC_R] = 23256 {136:171,}
traffic_breakdown_memtocore[GLOBAL_ACC_W] = 1856 {8:232,}
traffic_breakdown_memtocore[INST_ACC_R] = 6256 {136:46,}
maxmrqlatency = 15 
maxdqlatency = 0 
maxmflatency = 278 
averagemflatency = 185 
max_icnt2mem_latency = 36 
max_icnt2sh_latency = 11022 
mrq_lat_table:176 	2 	6 	18 	0 	0 	0 	0 	0 	0 	0 	0 	0 	0 	0 	0 	0 	0 	0 	0 	0 	0 	0 	0 	0 	0 	0 	0 	0 	0 	0 	0 	
dq_lat_table:0 	0 	0 	0 	0 	0 	0 	0 	0 	0 	0 	0 	0 	0 	0 	0 	0 	0 	0 	0 	0 	0 	0 	0 	0 	0 	0 	0 	0 	0 	0 	0 	
mf_lat_table:0 	0 	0 	0 	0 	0 	0 	318 	100 	0 	0 	0 	0 	0 	0 	0 	0 	0 	0 	0 	0 	0 	0 	0 	0 	0 	0 	0 	0 	0 	0 	0 	
icnt2mem_lat_table:0 	0 	0 	452 	9 	3 	0 	0 	0 	0 	0 	0 	0 	0 	0 	0 	0 	0 	0 	0 	0 	0 	0 	0 	
icnt2sh_lat_table:0 	0 	0 	162 	24 	0 	0 	0 	0 	0 	2 	11 	45 	174 	0 	0 	0 	0 	0 	0 	0 	0 	0 	0 	
mf_lat_pw_table:0 	0 	0 	0 	0 	0 	0 	18 	2 	0 	0 	0 	0 	0 	0 	0 	0 	0 	0 	0 	0 	0 	0 	0 	0 	0 	0 	0 	0 	0 	0 	0 	
maximum concurrent accesses to same row:
dram[0]:         1         0         0         0         0         0         0         0         0         0         0         0         0         0         0         0 
dram[1]:         0         0         0         0         0         0         0         0         0         0         0         0         0         0         0         0 
dram[2]:         0         0         0         0         0         0         0         0         0         0         0         0         0         0         0         0 
dram[3]:         0         0         0         0         0         0         0         0         0         0         0         0         0         0         0         0 
dram[4]:         0         0         0         0         0         0         0         0         0         0         0         0         0         0         0         0 
dram[5]:         0         0         0         0         0         0         0         0         0         0         0         0         0         0         0         0 
maximum service time to same row:
dram[0]:       596         0         0         0       678       672         0         0         0         0       869       841         0         0         0         0 
dram[1]:      1113         0         0         0         0         0         0      1124      1099         0       872       837         0         0         0         0 
dram[2]:         0         0         0         0       660      1447       653         0      1101         0       876       844         0         0         0         0 
dram[3]:         0         0         0         0         0       666       501         0         0      1110       881       857         0         0         0         0 
dram[4]:         0         0         0         0         0         0      2021       688         0      2719       832       860         0         0         0         0 
dram[5]:         0         0         0         0         0         0         0       647      1135         0       849       865         0         0         0         0 
average row accesses per activate:
dram[0]:  1.000000      -nan      -nan      -nan  1.000000  1.000000      -nan      -nan      -nan      -nan 15.000000 17.000000      -nan      -nan      -nan      -nan 
dram[1]:  2.000000      -nan      -nan      -nan      -nan      -nan      -nan  1.000000  2.000000      -nan 12.000000  7.000000      -nan      -nan      -nan      -nan 
dram[2]:      -nan      -nan      -nan      -nan  2.000000  1.000000  1.000000      -nan  2.000000      -nan 25.000000 15.000000      -nan      -nan      -nan      -nan 
dram[3]:      -nan      -nan      -nan      -nan      -nan  1.000000  2.000000      -nan      -nan  1.000000 15.000000 12.000000      -nan      -nan      -nan      -nan 
dram[4]:      -nan      -nan      -nan      -nan      -nan      -nan  1.000000  3.000000      -nan  1.000000 18.000000 17.000000      -nan      -nan      -nan      -nan 
dram[5]:      -nan      -nan      -nan      -nan      -nan      -nan      -nan  1.000000  1.000000      -nan  8.000000 14.000000      -nan      -nan      -nan      -nan 
average row locality = 202/32 = 6.312500
number of total memory accesses made:
dram[0]:         0         0         0         0         0         0         0         0         0         0         0         0         0         0         0         0 
dram[1]:         0         0         0         0         0         0         0         0         0         0         0         0         0         0         0         0 
dram[2]:         0         0         0         0         0         0         0         0         0         0         0         0         0         0         0         0 
dram[3]:         0         0         0         0         0         0         0         0         0         0         0         0         0         0         0         0 
dram[4]:         0         0         0         0         0         0         0         0         0         0         0         0         0         0         0         0 
dram[5]:         0         0         0         0         0         0         0         0         0         0         0         0         0         0         0         0 
total accesses: 0
min_bank_accesses = 0!
min_chip_accesses = 0!
number of total read accesses:
dram[0]:         3         0         0         0         1         1         0         0         0         0        10        11         0         0         0         0 
dram[1]:         2         0         0         0         0         0         0         1         2         0         8         6         0         0         0         0 
dram[2]:         0         0         0         0         2         1         1         0         2         0        15        10         0         0         0         0 
dram[3]:         0         0         0         0         0         1         2         0         0         1         9         8         0         0         0         0 
dram[4]:         0         0         0         0         0         0         1         3         0         1        12        12         0         0         0         0 
dram[5]:         0         0         0         0         0         0         0         1         1         0         7        10         0         0         0         0 
total reads: 145
min_bank_accesses = 0!
chip skew: 31/19 = 1.63
number of total write accesses:
dram[0]:         0         0         0         0         0         0         0         0         0         0         5         6         0         0         0         0 
dram[1]:         0         0         0         0         0         0         0         0         0         0         4         1         0         0         0         0 
dram[2]:         0         0         0         0         0         0         0         0         0         0        10         5         0         0         0         0 
dram[3]:         0         0         0         0         0         0         0         0         0         0         6         4         0         0         0         0 
dram[4]:         0         0         0         0         0         0         0         0         0         0         6         5         0         0         0         0 
dram[5]:         0         0         0         0         0         0         0         0         0         0         1         4         0         0         0         0 
total reads: 57
min_bank_accesses = 0!
chip skew: 15/5 = 3.00
average mf latency per bank:
dram[0]:       1296    none      none      none         268       268    none      none      none      none         321       323    none      none      none      none  
dram[1]:          0    none      none      none      none      none      none         268       263    none         369       565    none      none      none      none  
dram[2]:     none      none      none      none         263       268       268    none         266    none         226       388    none      none      none      none  
dram[3]:     none      none      none      none      none         268       263    none      none         268       234       335    none      none      none      none  
dram[4]:     none      none      none      none      none      none         268       262    none         268       878       322    none      none      none      none  
dram[5]:     none      none      none      none      none      none      none         268       268    none         531       325    none      none      none      none  
maximum mf latency per bank:
dram[0]:        278         0         0         0       268       268         0         0         0         0       269       269         0         0         0         0
dram[1]:          0         0         0         0         0         0         0       268       268         0       269       269         0         0         0         0
dram[2]:          0         0         0         0       268       268       268         0       273         0       269       270         0         0         0         0
dram[3]:          0         0         0         0         0       268       267         0         0       268       269       269         0         0         0         0
dram[4]:          0         0         0         0         0         0       268       268         0       268       270       270         0         0         0         0
dram[5]:          0         0         0         0         0         0         0       268       268         0       269       270         0         0         0         0

Number of Memory Banks Accessed per Memory Operation per Warp (from 0):
0	0	0	0	0	0	0	0	0	0	0	0	0	0	0	0	0	00	0	0	0	0	0	0	0	0	0	0	0	0	0	0	0	0	00	0	0	0	0	0	0	0	0	0	0	0	0	0	0	0	0	00	0	0	0	0	0	0	0	0	0	0	0	0	0	0	0	0	00	0	0	0	0	0	0	0	0	0	0	0	0	0	0	0	0	00	0	0	0	0	0	
Average # of Memory Banks Accessed per Memory Operation per Warp=-nan

position of mrq chosen
0	0	0	0	0	0	0	0	0	0	0	0	0	0	0	0	

average position of mrq chosen = -nan
Memory Partition 0: 
Cache L2_bank_000:
MSHR contents

Cache L2_bank_001:
MSHR contents

In Dram Latency Queue (total = 0): 
DRAM[0]: 16 bks, busW=4 BL=8 CL=12, tRRD=2 tCCD=6, tRCD=12 tRAS=28 tRP=12 tRC=40
n_cmd=14549 n_nop=14477 n_act=7 n_pre=2 n_req=37 n_rd=52 n_write=11 bw_util=0.00866
n_activity=615 dram_eff=0.2049
bk0: 6a 14476i bk1: 0a 14546i bk2: 0a 14548i bk3: 0a 14549i bk4: 2a 14532i bk5: 2a 14533i bk6: 0a 14550i bk7: 0a 14551i bk8: 0a 14551i bk9: 0a 14551i bk10: 20a 14432i bk11: 22a 14422i bk12: 0a 14547i bk13: 0a 14548i bk14: 0a 14548i bk15: 0a 14548i 
dram_util_bins: 0 0 0 0 0 0 0 0 0 0
dram_eff_bins: 0 0 0 0 0 0 0 0 0 0
mrqq: max=2 avg=0.00426146
Memory Partition 1: 
Cache L2_bank_002:
MSHR contents

Cache L2_bank_003:
MSHR contents

In Dram Latency Queue (total = 0): 
DRAM[1]: 16 bks, busW=4 BL=8 CL=12, tRRD=2 tCCD=6, tRCD=12 tRAS=28 tRP=12 tRC=40
n_cmd=14549 n_nop=14501 n_act=5 n_pre=0 n_req=24 n_rd=38 n_write=5 bw_util=0.005911
n_activity=390 dram_eff=0.2205
bk0: 4a 14528i bk1: 0a 14548i bk2: 0a 14548i bk3: 0a 14548i bk4: 0a 14548i bk5: 0a 14549i bk6: 0a 14551i bk7: 2a 14535i bk8: 4a 14530i bk9: 0a 14549i bk10: 16a 14460i bk11: 12a 14498i bk12: 0a 14547i bk13: 0a 14548i bk14: 0a 14548i bk15: 0a 14548i 
dram_util_bins: 0 0 0 0 0 0 0 0 0 0
dram_eff_bins: 0 0 0 0 0 0 0 0 0 0
mrqq: max=1 avg=0.00130593
Memory Partition 2: 
Cache L2_bank_004:
MSHR contents

Cache L2_bank_005:
MSHR contents

In Dram Latency Queue (total = 0): 
DRAM[2]: 16 bks, busW=4 BL=8 CL=12, tRRD=2 tCCD=6, tRCD=12 tRAS=28 tRP=12 tRC=40
n_cmd=14549 n_nop=14466 n_act=6 n_pre=0 n_req=46 n_rd=62 n_write=15 bw_util=0.01058
n_activity=689 dram_eff=0.2235
bk0: 0a 14549i bk1: 0a 14550i bk2: 0a 14551i bk3: 0a 14552i bk4: 4a 14531i bk5: 2a 14533i bk6: 2a 14532i bk7: 0a 14547i bk8: 4a 14529i bk9: 0a 14548i bk10: 30a 14334i bk11: 20a 14416i bk12: 0a 14546i bk13: 0a 14547i bk14: 0a 14548i bk15: 0a 14549i 
dram_util_bins: 0 0 0 0 0 0 0 0 0 0
dram_eff_bins: 0 0 0 0 0 0 0 0 0 0
mrqq: max=2 avg=0.00501753
Memory Partition 3: 
Cache L2_bank_006:
MSHR contents

Cache L2_bank_007:
MSHR contents

In Dram Latency Queue (total = 0): 
DRAM[3]: 16 bks, busW=4 BL=8 CL=12, tRRD=2 tCCD=6, tRCD=12 tRAS=28 tRP=12 tRC=40
n_cmd=14549 n_nop=14492 n_act=5 n_pre=0 n_req=31 n_rd=42 n_write=10 bw_util=0.007148
n_activity=495 dram_eff=0.2101
bk0: 0a 14548i bk1: 0a 14549i bk2: 0a 14549i bk3: 0a 14550i bk4: 0a 14550i bk5: 2a 14533i bk6: 4a 14528i bk7: 0a 14550i bk8: 0a 14551i bk9: 2a 14535i bk10: 18a 14433i bk11: 16a 14450i bk12: 0a 14546i bk13: 0a 14547i bk14: 0a 14548i bk15: 0a 14548i 
dram_util_bins: 0 0 0 0 0 0 0 0 0 0
dram_eff_bins: 0 0 0 0 0 0 0 0 0 0
mrqq: max=1 avg=0.00130593
Memory Partition 4: 
Cache L2_bank_008:
MSHR contents

Cache L2_bank_009:
MSHR contents

In Dram Latency Queue (total = 0): 
DRAM[4]: 16 bks, busW=4 BL=8 CL=12, tRRD=2 tCCD=6, tRCD=12 tRAS=28 tRP=12 tRC=40
n_cmd=14549 n_nop=14475 n_act=5 n_pre=0 n_req=40 n_rd=58 n_write=11 bw_util=0.009485
n_activity=612 dram_eff=0.2255
bk0: 0a 14549i bk1: 0a 14550i bk2: 0a 14550i bk3: 0a 14551i bk4: 0a 14551i bk5: 0a 14552i bk6: 2a 14536i bk7: 6a 14524i bk8: 0a 14549i bk9: 2a 14532i bk10: 24a 14409i bk11: 24a 14416i bk12: 0a 14544i bk13: 0a 14546i bk14: 0a 14548i bk15: 0a 14548i 
dram_util_bins: 0 0 0 0 0 0 0 0 0 0
dram_eff_bins: 0 0 0 0 0 0 0 0 0 0
mrqq: max=2 avg=0.00426146
Memory Partition 5: 
Cache L2_bank_010:
MSHR contents

Cache L2_bank_011:
MSHR contents

In Dram Latency Queue (total = 0): 
DRAM[5]: 16 bks, busW=4 BL=8 CL=12, tRRD=2 tCCD=6, tRCD=12 tRAS=28 tRP=12 tRC=40
n_cmd=14549 n_nop=14502 n_act=4 n_pre=0 n_req=24 n_rd=38 n_write=5 bw_util=0.005911
n_activity=374 dram_eff=0.2299
bk0: 0a 14548i bk1: 0a 14549i bk2: 0a 14549i bk3: 0a 14549i bk4: 0a 14549i bk5: 0a 14551i bk6: 0a 14551i bk7: 2a 14534i bk8: 2a 14533i bk9: 0a 14548i bk10: 14a 14495i bk11: 20a 14451i bk12: 0a 14547i bk13: 0a 14548i bk14: 0a 14548i bk15: 0a 14548i 
dram_util_bins: 0 0 0 0 0 0 0 0 0 0
dram_eff_bins: 0 0 0 0 0 0 0 0 0 0
mrqq: max=1 avg=0.0014434

========= L2 cache stats =========
L2_cache_bank[0]: Access = 64, Miss = 14, Miss_rate = 0.219, Pending_hits = 7, Reservation_fails = 223
L2_cache_bank[1]: Access = 30, Miss = 12, Miss_rate = 0.400, Pending_hits = 1, Reservation_fails = 0
L2_cache_bank[2]: Access = 50, Miss = 12, Miss_rate = 0.240, Pending_hits = 3, Reservation_fails = 108
L2_cache_bank[3]: Access = 24, Miss = 7, Miss_rate = 0.292, Pending_hits = 0, Reservation_fails = 0
L2_cache_bank[4]: Access = 33, Miss = 20, Miss_rate = 0.606, Pending_hits = 1, Reservation_fails = 0
L2_cache_bank[5]: Access = 34, Miss = 11, Miss_rate = 0.324, Pending_hits = 0, Reservation_fails = 0
L2_cache_bank[6]: Access = 19, Miss = 11, Miss_rate = 0.579, Pending_hits = 1, Reservation_fails = 0
L2_cache_bank[7]: Access = 24, Miss = 10, Miss_rate = 0.417, Pending_hits = 0, Reservation_fails = 0
L2_cache_bank[8]: Access = 103, Miss = 13, Miss_rate = 0.126, Pending_hits = 1, Reservation_fails = 0
L2_cache_bank[9]: Access = 33, Miss = 16, Miss_rate = 0.485, Pending_hits = 0, Reservation_fails = 0
L2_cache_bank[10]: Access = 25, Miss = 8, Miss_rate = 0.320, Pending_hits = 0, Reservation_fails = 0
L2_cache_bank[11]: Access = 25, Miss = 11, Miss_rate = 0.440, Pending_hits = 0, Reservation_fails = 0
L2_total_cache_accesses = 464
L2_total_cache_misses = 145
L2_total_cache_miss_rate = 0.3125
L2_total_cache_pending_hits = 14
L2_total_cache_reservation_fails = 331
L2_total_cache_breakdown:
	L2_cache_stats_breakdown[GLOBAL_ACC_R][HIT] = 83
	L2_cache_stats_breakdown[GLOBAL_ACC_R][HIT_RESERVED] = 4
	L2_cache_stats_breakdown[GLOBAL_ACC_R][MISS] = 84
	L2_cache_stats_breakdown[CONST_ACC_R][HIT] = 11
	L2_cache_stats_breakdown[CONST_ACC_R][HIT_RESERVED] = 3
	L2_cache_stats_breakdown[CONST_ACC_R][MISS] = 1
	L2_cache_stats_breakdown[CONST_ACC_R][RESERVATION_FAIL] = 107
	L2_cache_stats_breakdown[GLOBAL_ACC_W][HIT] = 175
	L2_cache_stats_breakdown[GLOBAL_ACC_W][HIT_RESERVED] = 1
	L2_cache_stats_breakdown[GLOBAL_ACC_W][MISS] = 56
	L2_cache_stats_breakdown[INST_ACC_R][HIT] = 36
	L2_cache_stats_breakdown[INST_ACC_R][HIT_RESERVED] = 6
	L2_cache_stats_breakdown[INST_ACC_R][MISS] = 4
	L2_cache_stats_breakdown[INST_ACC_R][RESERVATION_FAIL] = 224
L2_cache_data_port_util = 0.005
L2_cache_fill_port_util = 0.004

icnt_total_pkts_mem_to_simt=1362
icnt_total_pkts_simt_to_mem=696
LD_mem_lat_dist  0 0 0 0 0 0 0 0 0 0 0 0 0 0 0 0 0 0 0 0 0 0 0 0 0 0 0
ST_mem_lat_dist  0 0 0 0 0 0 0 0 0 0 0 0 0 0 0 0 0 0 0 0 0 0 0 0 0 0 0
----------------------------Interconnect-DETAILS--------------------------------
Class 0:
Packet latency average = 7.36324
	minimum = 6
	maximum = 21
Network latency average = 7.26618
	minimum = 6
	maximum = 16
Slowest packet = 292
Flit latency average = 6.21736
	minimum = 6
	maximum = 13
Slowest flit = 811
Fragmentation average = 0
	minimum = 0
	maximum = 0
Injected packet rate average = 0.00556579
	minimum = 0.000441989 (at node 0)
	maximum = 0.0187845 (at node 23)
Accepted packet rate average = 0.00556579
	minimum = 0.000441989 (at node 0)
	maximum = 0.0187845 (at node 23)
Injected flit rate average = 0.0117864
	minimum = 0.000441989 (at node 0)
	maximum = 0.0271823 (at node 2)
Accepted flit rate average= 0.0117864
	minimum = 0.00220994 (at node 0)
	maximum = 0.038453 (at node 2)
Injected packet length average = 2.11765
Accepted packet length average = 2.11765
Total in-flight flits = 0 (0 measured)
====== Overall Traffic Statistics ======
====== Traffic class 0 ======
Packet latency average = 8.75621 (2 samples)
	minimum = 6 (2 samples)
	maximum = 27.5 (2 samples)
Network latency average = 8.23591 (2 samples)
	minimum = 6 (2 samples)
	maximum = 25 (2 samples)
Flit latency average = 6.98085 (2 samples)
	minimum = 6 (2 samples)
	maximum = 23.5 (2 samples)
Fragmentation average = 0 (2 samples)
	minimum = 0 (2 samples)
	maximum = 0 (2 samples)
Injected packet rate average = 0.00348966 (2 samples)
	minimum = 0.000528781 (2 samples)
	maximum = 0.0135474 (2 samples)
Accepted packet rate average = 0.00348966 (2 samples)
	minimum = 0.000528781 (2 samples)
	maximum = 0.0135474 (2 samples)
Injected flit rate average = 0.00765441 (2 samples)
	minimum = 0.000605728 (2 samples)
	maximum = 0.0248254 (2 samples)
Accepted flit rate average = 0.00765441 (2 samples)
	minimum = 0.00148971 (2 samples)
	maximum = 0.0299991 (2 samples)
Injected packet size average = 2.19345 (2 samples)
Accepted packet size average = 2.19345 (2 samples)
Hops average = 1 (2 samples)
----------------------------END-of-Interconnect-DETAILS-------------------------


gpgpu_simulation_time = 0 days, 0 hrs, 0 min, 5 sec (5 sec)
gpgpu_simulation_rate = 23372 (inst/sec)
gpgpu_simulation_rate = 2204 (cycle/sec)
GPGPU-Sim: synchronize waiting for inactive GPU simulation
GPGPU-Sim API: Stream Manager State
GPGPU-Sim: detected inactive GPU simulation thread

GPGPU-Sim PTX: cudaLaunch for 0x0x4037f0 (mode=performance simulation) on stream 0
GPGPU-Sim PTX: pushing kernel '_Z6KernelP4NodePiPbS2_S1_S2_i' to stream 0, gridDim= (16,1,1) blockDim = (256,1,1) 
kernel '_Z6KernelP4NodePiPbS2_S1_S2_i' transfer to GPU hardware scheduler
GPGPU-Sim uArch: Shader 3 bind to kernel 3 '_Z6KernelP4NodePiPbS2_S1_S2_i'
GPGPU-Sim uArch: core:  3, cta: 0 initialized @(1,11023)
GPGPU-Sim uArch: Shader 4 bind to kernel 3 '_Z6KernelP4NodePiPbS2_S1_S2_i'
GPGPU-Sim uArch: core:  4, cta: 0 initialized @(1,11023)
GPGPU-Sim uArch: Shader 5 bind to kernel 3 '_Z6KernelP4NodePiPbS2_S1_S2_i'
GPGPU-Sim uArch: core:  5, cta: 0 initialized @(1,11023)
GPGPU-Sim uArch: Shader 6 bind to kernel 3 '_Z6KernelP4NodePiPbS2_S1_S2_i'
GPGPU-Sim uArch: core:  6, cta: 0 initialized @(1,11023)
GPGPU-Sim uArch: Shader 7 bind to kernel 3 '_Z6KernelP4NodePiPbS2_S1_S2_i'
GPGPU-Sim uArch: core:  7, cta: 0 initialized @(1,11023)
[...]
gpgpu_stall_shd_mem[l_mem_ld][wb_icnt_rc] = 0
gpgpu_stall_shd_mem[l_mem_ld][wb_rsrv_fail] = 0
gpgpu_stall_shd_mem[l_mem_st][mshr_rc] = 0
gpgpu_stall_shd_mem[l_mem_st][icnt_rc] = 0
gpgpu_stall_shd_mem[l_mem_ld][wb_icnt_rc] = 0
gpgpu_stall_shd_mem[l_mem_ld][wb_rsrv_fail] = 0
gpu_reg_bank_conflict_stalls = 0
Warp Occupancy Distribution:
Stall:128046	W0_Idle:116172	W0_Scoreboard:399723	W1:42082	W2:19365	W3:12575	W4:7978	W5:5701	W6:3925	W7:3076W8:2274	W9:2358	W10:2062	W11:2086	W12:2632	W13:1974	W14:2008	W15:1337	W16:1150	W17:1297W18:665	W19:334	W20:175	W21:104	W22:93	W23:0	W24:0	W25:0	W26:0	W27:0	W28:0	W29:0	W30:0	W31:0	W32:15360
traffic_breakdown_coretomem[CONST_ACC_R] = 120 {8:15,}
traffic_breakdown_coretomem[GLOBAL_ACC_R] = 49360 {8:6170,}
traffic_breakdown_coretomem[GLOBAL_ACC_W] = 782776 {40:19384,72:18,136:45,}
traffic_breakdown_coretomem[INST_ACC_R] = 480 {8:60,}
traffic_breakdown_memtocore[CONST_ACC_R] = 1080 {72:15,}
traffic_breakdown_memtocore[GLOBAL_ACC_R] = 839120 {136:6170,}
traffic_breakdown_memtocore[GLOBAL_ACC_W] = 155576 {8:19447,}
traffic_breakdown_memtocore[INST_ACC_R] = 8160 {136:60,}
maxmrqlatency = 73 
maxdqlatency = 0 
maxmflatency = 653 
averagemflatency = 241 
max_icnt2mem_latency = 450 
max_icnt2sh_latency = 42781 
mrq_lat_table:1031 	82 	81 	74 	59 	33 	2 	0 	0 	0 	0 	0 	0 	0 	0 	0 	0 	0 	0 	0 	0 	0 	0 	0 	0 	0 	0 	0 	0 	0 	0 	0 	
dq_lat_table:0 	0 	0 	0 	0 	0 	0 	0 	0 	0 	0 	0 	0 	0 	0 	0 	0 	0 	0 	0 	0 	0 	0 	0 	0 	0 	0 	0 	0 	0 	0 	0 	
mf_lat_table:0 	0 	0 	0 	0 	0 	0 	15053 	10485 	94 	0 	0 	0 	0 	0 	0 	0 	0 	0 	0 	0 	0 	0 	0 	0 	0 	0 	0 	0 	0 	0 	0 	
icnt2mem_lat_table:0 	0 	0 	6647 	2151 	2482 	6452 	7280 	680 	0 	0 	0 	0 	0 	0 	0 	0 	0 	0 	0 	0 	0 	0 	0 	
icnt2sh_lat_table:0 	0 	0 	2128 	2477 	1423 	154 	3 	0 	0 	2 	11 	45 	1538 	15060 	2791 	0 	0 	0 	0 	0 	0 	0 	0 	
mf_lat_pw_table:0 	0 	0 	0 	0 	0 	0 	66 	21 	0 	0 	0 	0 	0 	0 	0 	0 	0 	0 	0 	0 	0 	0 	0 	0 	0 	0 	0 	0 	0 	0 	0 	
maximum concurrent accesses to same row:
dram[0]:         1         0         0         0         0         0         0         0         0         0         0         0         0         0         0         0 
dram[1]:         0         0         0         0         0         0         0         0         0         0         0         0         0         0         0         0 
dram[2]:         0         0         0         0         0         0         0         0         0         0         0         0         0         0         0         0 
dram[3]:         0         0         0         0         0         0         0         0         0         0         0         0         0         0         0         0 
dram[4]:         0         0         0         0         0         0         0         0         0         0         0         0         0         0         0         0 
dram[5]:         0         0         0         0         0         0         0         0         0         0         0         0         0         0         0         0 
maximum service time to same row:
dram[0]:       596         0         0         0       678       672       501       529       728       850       869       841         0         0         0         0 
dram[1]:      1113         0         0         0       513       549       507      1124      1099       851       872       837         0         0         0         0 
dram[2]:         0         0         0         0       660      1447       653       660      1101       838       876       844         0         0         0         0 
dram[3]:         0         0         0         0       526       666       501       654       854      1110       881       857         0         0         0         0 
dram[4]:         0         0         0         0       504       651      2021       688       859      2719       832       860         0         0         0         0 
dram[5]:         0         0         0         0       507       513       515       647      1135       856       849       865         0         0         0         0 
average row accesses per activate:
dram[0]:  1.000000      -nan      -nan      -nan 10.000000 10.000000 32.000000 32.000000 32.000000 32.000000 40.000000 38.000000      -nan      -nan      -nan      -nan 
dram[1]:  2.000000      -nan      -nan      -nan 10.000000 10.000000 32.000000 32.000000 32.000000 32.000000 41.000000 37.000000      -nan      -nan      -nan      -nan 
dram[2]:      -nan      -nan      -nan      -nan 10.000000 12.000000 32.000000 32.000000 32.000000 32.000000 40.000000 37.000000      -nan      -nan      -nan      -nan 
dram[3]:      -nan      -nan      -nan      -nan 10.000000 12.000000 32.000000 32.000000 32.000000 32.000000 41.000000 39.000000      -nan      -nan      -nan      -nan 
dram[4]:      -nan      -nan      -nan      -nan 10.000000 12.000000 32.000000 32.000000 32.000000 32.000000 38.000000 37.000000      -nan      -nan      -nan      -nan 
dram[5]:      -nan      -nan      -nan      -nan 10.000000 12.000000 32.000000 32.000000 32.000000 32.000000 36.000000 37.000000      -nan      -nan      -nan      -nan 
average row locality = 1362/52 = 26.192308
number of total memory accesses made:
dram[0]:         0         0         0         0         0         0         0         0         0         0         0         0         0         0         0         0 
dram[1]:         0         0         0         0         0         0         0         0         0         0         0         0         0         0         0         0 
dram[2]:         0         0         0         0         0         0         0         0         0         0         0         0         0         0         0         0 
dram[3]:         0         0         0         0         0         0         0         0         0         0         0         0         0         0         0         0 
dram[4]:         0         0         0         0         0         0         0         0         0         0         0         0         0         0         0         0 
dram[5]:         0         0         0         0         0         0         0         0         0         0         0         0         0         0         0         0 
total accesses: 0
min_bank_accesses = 0!
min_chip_accesses = 0!
number of total read accesses:
dram[0]:         3         0         0         0        10        10        32        32        32        32        28        26         0         0         0         0 
dram[1]:         2         0         0         0        10        10        32        32        32        32        28        26         0         0         0         0 
dram[2]:         0         0         0         0        10        12        32        32        32        32        28        26         0         0         0         0 
dram[3]:         0         0         0         0        10        12        32        32        32        32        28        26         0         0         0         0 
dram[4]:         0         0         0         0        10        12        32        32        32        32        27        26         0         0         0         0 
dram[5]:         0         0         0         0        10        12        32        32        32        32        26        26         0         0         0         0 
total reads: 1222
min_bank_accesses = 0!
chip skew: 205/202 = 1.01
number of total write accesses:
dram[0]:         0         0         0         0         0         0         0         0         0         0        12        12         0         0         0         0 
dram[1]:         0         0         0         0         0         0         0         0         0         0        13        11         0         0         0         0 
dram[2]:         0         0         0         0         0         0         0         0         0         0        12        11         0         0         0         0 
dram[3]:         0         0         0         0         0         0         0         0         0         0        13        13         0         0         0         0 
dram[4]:         0         0         0         0         0         0         0         0         0         0        11        11         0         0         0         0 
dram[5]:         0         0         0         0         0         0         0         0         0         0        10        11         0         0         0         0 
total reads: 140
min_bank_accesses = 0!
chip skew: 26/21 = 1.24
average mf latency per bank:
dram[0]:       1296    none      none      none        1264      1027      1285      1085       824       854      8638     11079    none      none      none      none  
dram[1]:          0    none      none      none        1473      1105      1128      1232       828      1035      8405     11674    none      none      none      none  
dram[2]:     none      none      none      none        1413      1225       980      1137       763       874      8759      8834    none      none      none      none  
dram[3]:     none      none      none      none        1337      1404      1158      1280       959      1108      8416      8123    none      none      none      none  
dram[4]:     none      none      none      none        1064      1219      1225      1197       934       986     32966      8601    none      none      none      none  
dram[5]:     none      none      none      none        1026      1386      1193      1419      1019      1197     11601      8869    none      none      none      none  
maximum mf latency per bank:
dram[0]:        278         0         0         0       369       337       489       456       454       497       534       578         0         0         0         0
dram[1]:          0         0         0         0       413       467       464       511       571       539       526       501         0         0         0         0
dram[2]:          0         0         0         0       372       436       408       472       374       438       489       487         0         0         0         0
dram[3]:          0         0         0         0       436       436       463       508       467       565       489       495         0         0         0         0
dram[4]:          0         0         0         0       365       371       473       553       511       551       580       563         0         0         0         0
dram[5]:          0         0         0         0       379       441       539       645       606       653       540       653         0         0         0         0

Number of Memory Banks Accessed per Memory Operation per Warp (from 0):
0	0	0	0	0	0	0	0	0	0	0	0	0	0	0	0	0	00	0	0	0	0	0	0	0	0	0	0	0	0	0	0	0	0	00	0	0	0	0	0	0	0	0	0	0	0	0	0	0	0	0	00	0	0	0	0	0	0	0	0	0	0	0	0	0	0	0	0	00	0	0	0	0	0	0	0	0	0	0	0	0	0	0	0	0	00	0	0	0	0	0	
Average # of Memory Banks Accessed per Memory Operation per Warp=-nan

position of mrq chosen
0	0	0	0	0	0	0	0	0	0	0	0	0	0	0	0	

average position of mrq chosen = -nan
Memory Partition 0: 
Cache L2_bank_000:
MSHR contents

Cache L2_bank_001:
MSHR contents

In Dram Latency Queue (total = 0): 
DRAM[0]: 16 bks, busW=4 BL=8 CL=12, tRRD=2 tCCD=6, tRCD=12 tRAS=28 tRP=12 tRC=40
n_cmd=56929 n_nop=56482 n_act=11 n_pre=2 n_req=229 n_rd=410 n_write=24 bw_util=0.01525
n_activity=2341 dram_eff=0.3708
bk0: 6a 56856i bk1: 0a 56926i bk2: 0a 56929i bk3: 0a 56931i bk4: 20a 56870i bk5: 20a 56818i bk6: 64a 56685i bk7: 64a 56608i bk8: 64a 56726i bk9: 64a 56691i bk10: 56a 56605i bk11: 52a 56615i bk12: 0a 56925i bk13: 0a 56927i bk14: 0a 56927i bk15: 0a 56928i 
dram_util_bins: 0 0 0 0 0 0 0 0 0 0
dram_eff_bins: 0 0 0 0 0 0 0 0 0 0
mrqq: max=6 avg=0.014966
Memory Partition 1: 
Cache L2_bank_002:
MSHR contents

Cache L2_bank_003:
MSHR contents

In Dram Latency Queue (total = 0): 
DRAM[1]: 16 bks, busW=4 BL=8 CL=12, tRRD=2 tCCD=6, tRCD=12 tRAS=28 tRP=12 tRC=40
n_cmd=56929 n_nop=56488 n_act=9 n_pre=0 n_req=228 n_rd=408 n_write=24 bw_util=0.01518
n_activity=2264 dram_eff=0.3816
bk0: 4a 56907i bk1: 0a 56929i bk2: 0a 56931i bk3: 0a 56932i bk4: 20a 56845i bk5: 20a 56846i bk6: 64a 56699i bk7: 64a 56616i bk8: 64a 56739i bk9: 64a 56717i bk10: 56a 56617i bk11: 52a 56641i bk12: 0a 56926i bk13: 0a 56927i bk14: 0a 56927i bk15: 0a 56927i 
dram_util_bins: 0 0 0 0 0 0 0 0 0 0
dram_eff_bins: 0 0 0 0 0 0 0 0 0 0
mrqq: max=11 avg=0.0177414
Memory Partition 2: 
Cache L2_bank_004:
MSHR contents

Cache L2_bank_005:
MSHR contents

In Dram Latency Queue (total = 0): 
DRAM[2]: 16 bks, busW=4 BL=8 CL=12, tRRD=2 tCCD=6, tRCD=12 tRAS=28 tRP=12 tRC=40
n_cmd=56929 n_nop=56490 n_act=8 n_pre=0 n_req=227 n_rd=408 n_write=23 bw_util=0.01514
n_activity=2300 dram_eff=0.3748
bk0: 0a 56929i bk1: 0a 56931i bk2: 0a 56932i bk3: 0a 56933i bk4: 20a 56873i bk5: 24a 56848i bk6: 64a 56732i bk7: 64a 56685i bk8: 64a 56735i bk9: 64a 56704i bk10: 56a 56575i bk11: 52a 56597i bk12: 0a 56925i bk13: 0a 56926i bk14: 0a 56927i bk15: 0a 56929i 
dram_util_bins: 0 0 0 0 0 0 0 0 0 0
dram_eff_bins: 0 0 0 0 0 0 0 0 0 0
mrqq: max=2 avg=0.00565617
Memory Partition 3: 
Cache L2_bank_006:
MSHR contents

Cache L2_bank_007:
MSHR contents

In Dram Latency Queue (total = 0): 
DRAM[3]: 16 bks, busW=4 BL=8 CL=12, tRRD=2 tCCD=6, tRCD=12 tRAS=28 tRP=12 tRC=40
n_cmd=56929 n_nop=56487 n_act=8 n_pre=0 n_req=230 n_rd=408 n_write=26 bw_util=0.01525
n_activity=2284 dram_eff=0.38
bk0: 0a 56929i bk1: 0a 56930i bk2: 0a 56930i bk3: 0a 56932i bk4: 20a 56840i bk5: 24a 56815i bk6: 64a 56708i bk7: 64a 56615i bk8: 64a 56727i bk9: 64a 56671i bk10: 56a 56630i bk11: 52a 56579i bk12: 0a 56925i bk13: 0a 56926i bk14: 0a 56927i bk15: 0a 56929i 
dram_util_bins: 0 0 0 0 0 0 0 0 0 0
dram_eff_bins: 0 0 0 0 0 0 0 0 0 0
mrqq: max=6 avg=0.0134027
Memory Partition 4: 
Cache L2_bank_008:
MSHR contents

Cache L2_bank_009:
MSHR contents

In Dram Latency Queue (total = 0): 
DRAM[4]: 16 bks, busW=4 BL=8 CL=12, tRRD=2 tCCD=6, tRCD=12 tRAS=28 tRP=12 tRC=40
n_cmd=56929 n_nop=56493 n_act=8 n_pre=0 n_req=225 n_rd=406 n_write=22 bw_util=0.01504
n_activity=2178 dram_eff=0.393
bk0: 0a 56929i bk1: 0a 56930i bk2: 0a 56931i bk3: 0a 56932i bk4: 20a 56846i bk5: 24a 56811i bk6: 64a 56663i bk7: 64a 56561i bk8: 64a 56720i bk9: 64a 56649i bk10: 54a 56621i bk11: 52a 56582i bk12: 0a 56923i bk13: 0a 56925i bk14: 0a 56928i bk15: 0a 56928i 
dram_util_bins: 0 0 0 0 0 0 0 0 0 0
dram_eff_bins: 0 0 0 0 0 0 0 0 0 0
mrqq: max=10 avg=0.0196736
Memory Partition 5: 
Cache L2_bank_010:
MSHR contents

Cache L2_bank_011:
MSHR contents

In Dram Latency Queue (total = 0): 
DRAM[5]: 16 bks, busW=4 BL=8 CL=12, tRRD=2 tCCD=6, tRCD=12 tRAS=28 tRP=12 tRC=40
n_cmd=56929 n_nop=56496 n_act=8 n_pre=0 n_req=223 n_rd=404 n_write=21 bw_util=0.01493
n_activity=2132 dram_eff=0.3987
bk0: 0a 56928i bk1: 0a 56929i bk2: 0a 56929i bk3: 0a 56929i bk4: 20a 56870i bk5: 24a 56824i bk6: 64a 56664i bk7: 64a 56643i bk8: 64a 56729i bk9: 64a 56630i bk10: 52a 56541i bk11: 52a 56549i bk12: 0a 56926i bk13: 0a 56927i bk14: 0a 56927i bk15: 0a 56927i 
dram_util_bins: 0 0 0 0 0 0 0 0 0 0
dram_eff_bins: 0 0 0 0 0 0 0 0 0 0
mrqq: max=8 avg=0.024715

========= L2 cache stats =========
L2_cache_bank[0]: Access = 1853, Miss = 105, Miss_rate = 0.057, Pending_hits = 8, Reservation_fails = 223
L2_cache_bank[1]: Access = 2125, Miss = 100, Miss_rate = 0.047, Pending_hits = 2, Reservation_fails = 0
L2_cache_bank[2]: Access = 1816, Miss = 104, Miss_rate = 0.057, Pending_hits = 4, Reservation_fails = 108
L2_cache_bank[3]: Access = 2146, Miss = 100, Miss_rate = 0.047, Pending_hits = 1, Reservation_fails = 0
L2_cache_bank[4]: Access = 1799, Miss = 102, Miss_rate = 0.057, Pending_hits = 1, Reservation_fails = 0
L2_cache_bank[5]: Access = 1724, Miss = 102, Miss_rate = 0.059, Pending_hits = 0, Reservation_fails = 0
L2_cache_bank[6]: Access = 1785, Miss = 102, Miss_rate = 0.057, Pending_hits = 4, Reservation_fails = 0
L2_cache_bank[7]: Access = 1700, Miss = 102, Miss_rate = 0.060, Pending_hits = 3, Reservation_fails = 0
L2_cache_bank[8]: Access = 5277, Miss = 101, Miss_rate = 0.019, Pending_hits = 1, Reservation_fails = 0
L2_cache_bank[9]: Access = 1693, Miss = 102, Miss_rate = 0.060, Pending_hits = 1, Reservation_fails = 0
L2_cache_bank[10]: Access = 2087, Miss = 100, Miss_rate = 0.048, Pending_hits = 0, Reservation_fails = 0
L2_cache_bank[11]: Access = 1687, Miss = 102, Miss_rate = 0.060, Pending_hits = 1, Reservation_fails = 0
L2_total_cache_accesses = 25692
L2_total_cache_misses = 1222
L2_total_cache_miss_rate = 0.0476
L2_total_cache_pending_hits = 26
L2_total_cache_reservation_fails = 331
L2_total_cache_breakdown:
	L2_cache_stats_breakdown[GLOBAL_ACC_R][HIT] = 5076
	L2_cache_stats_breakdown[GLOBAL_ACC_R][HIT_RESERVED] = 6
	L2_cache_stats_breakdown[GLOBAL_ACC_R][MISS] = 1088
	L2_cache_stats_breakdown[CONST_ACC_R][HIT] = 11
	L2_cache_stats_breakdown[CONST_ACC_R][HIT_RESERVED] = 3
	L2_cache_stats_breakdown[CONST_ACC_R][MISS] = 1
	L2_cache_stats_breakdown[CONST_ACC_R][RESERVATION_FAIL] = 107
	L2_cache_stats_breakdown[GLOBAL_ACC_W][HIT] = 19307
	L2_cache_stats_breakdown[GLOBAL_ACC_W][HIT_RESERVED] = 11
	L2_cache_stats_breakdown[GLOBAL_ACC_W][MISS] = 129
	L2_cache_stats_breakdown[INST_ACC_R][HIT] = 50
	L2_cache_stats_breakdown[INST_ACC_R][HIT_RESERVED] = 6
	L2_cache_stats_breakdown[INST_ACC_R][MISS] = 4
	L2_cache_stats_breakdown[INST_ACC_R][RESERVATION_FAIL] = 224
L2_cache_data_port_util = 0.077
L2_cache_fill_port_util = 0.009

icnt_total_pkts_mem_to_simt=50642
icnt_total_pkts_simt_to_mem=45292
LD_mem_lat_dist  0 0 0 0 0 0 0 0 0 0 0 0 0 0 0 0 0 0 0 0 0 0 0 0 0 0 0
ST_mem_lat_dist  0 0 0 0 0 0 0 0 0 0 0 0 0 0 0 0 0 0 0 0 0 0 0 0 0 0 0
----------------------------Interconnect-DETAILS--------------------------------
Class 0:
Packet latency average = 8.475
	minimum = 6
	maximum = 16
Network latency average = 8.2125
	minimum = 6
	maximum = 13
Slowest packet = 51346
Flit latency average = 6.5307
	minimum = 6
	maximum = 9
Slowest flit = 95873
Fragmentation average = 0
	minimum = 0
	maximum = 0
Injected packet rate average = 0.00396648
	minimum = 0.00267738 (at node 0)
	maximum = 0.00803213 (at node 2)
Accepted packet rate average = 0.00396648
	minimum = 0.00267738 (at node 0)
	maximum = 0.00803213 (at node 2)
Injected flit rate average = 0.0113045
	minimum = 0.00267738 (at node 0)
	maximum = 0.0334672 (at node 18)
Accepted flit rate average= 0.0113045
	minimum = 0.00267738 (at node 20)
	maximum = 0.0294511 (at node 2)
Injected packet length average = 2.85
Accepted packet length average = 2.85
Total in-flight flits = 0 (0 measured)
====== Overall Traffic Statistics ======
====== Traffic class 0 ======
Packet latency average = 19.9189 (8 samples)
	minimum = 6 (8 samples)
	maximum = 128 (8 samples)
Network latency average = 14.3179 (8 samples)
	minimum = 6 (8 samples)
	maximum = 91.5 (8 samples)
Flit latency average = 13.6268 (8 samples)
	minimum = 6 (8 samples)
	maximum = 90 (8 samples)
Fragmentation average = 0 (8 samples)
	minimum = 0 (8 samples)
	maximum = 0 (8 samples)
Injected packet rate average = 0.0321816 (8 samples)
	minimum = 0.0205791 (8 samples)
	maximum = 0.0902656 (8 samples)
Accepted packet rate average = 0.0321816 (8 samples)
	minimum = 0.0205791 (8 samples)
	maximum = 0.0902656 (8 samples)
Injected flit rate average = 0.0630797 (8 samples)
	minimum = 0.0357349 (8 samples)
	maximum = 0.138232 (8 samples)
Accepted flit rate average = 0.0630797 (8 samples)
	minimum = 0.0341999 (8 samples)
	maximum = 0.207003 (8 samples)
Injected packet size average = 1.96012 (8 samples)
Accepted packet size average = 1.96012 (8 samples)
Hops average = 1 (8 samples)
----------------------------END-of-Interconnect-DETAILS-------------------------


gpgpu_simulation_time = 0 days, 0 hrs, 0 min, 45 sec (45 sec)
gpgpu_simulation_rate = 20393 (inst/sec)
gpgpu_simulation_rate = 958 (cycle/sec)
GPGPU-Sim: synchronize waiting for inactive GPU simulation
GPGPU-Sim API: Stream Manager State
GPGPU-Sim: detected inactive GPU simulation thread
Kernel Executed 8 times
Processing time: 44558.066406 (ms)

