

        *** GPGPU-Sim Simulator Version 3.2.2  [build 17315] ***


GPGPU-Sim PTX: simulation mode 0 (can change with PTX_SIM_MODE_FUNC environment variable:
               1=functional simulation only, 0=detailed performance simulator)
GPGPU-Sim: Configuration options:

-network_mode                           1 # Interconnection network mode
-inter_config_file   config_fermi_islip.icnt # Interconnection network config file
-gpgpu_ptx_use_cuobjdump                    1 # Use cuobjdump to extract ptx and sass from binaries
-gpgpu_experimental_lib_support                    0 # Try to extract code from cuda libraries [Broken because of unknown cudaGetExportTable]
-gpgpu_ptx_convert_to_ptxplus                    0 # Convert SASS (native ISA) to ptxplus and run ptxplus
-gpgpu_ptx_force_max_capability                   20 # Force maximum compute capability
-gpgpu_ptx_inst_debug_to_file                    0 # Dump executed instructions' debug information to file
-gpgpu_ptx_inst_debug_file       inst_debug.txt # Executed instructions' debug output file
-gpgpu_ptx_inst_debug_thread_uid                    1 # Thread UID for executed instructions' debug output
-gpgpu_simd_model                       1 # 1 = post-dominator
-gpgpu_shader_core_pipeline              1536:32 # shader core pipeline config, i.e., {<nthread>:<warpsize>}
-gpgpu_tex_cache:l1  4:128:24,L:R:m:N,F:128:4,128:2 # per-shader L1 texture cache  (READ-ONLY) config  {<nsets>:<bsize>:<assoc>,<rep>:<wr>:<alloc>:<wr_alloc>,<mshr>:<N>:<merge>,<mq>:<rf>}
-gpgpu_const_cache:l1 64:64:2,L:R:f:N,A:2:32,4 # per-shader L1 constant memory cache  (READ-ONLY) config  {<nsets>:<bsize>:<assoc>,<rep>:<wr>:<alloc>:<wr_alloc>,<mshr>:<N>:<merge>,<mq>} 
-gpgpu_cache:il1     4:128:4,L:R:f:N,A:2:32,4 # shader L1 instruction cache config  {<nsets>:<bsize>:<assoc>,<rep>:<wr>:<alloc>:<wr_alloc>,<mshr>:<N>:<merge>,<mq>} 
-gpgpu_cache:dl1     32:128:4,L:L:m:N,A:32:8,8 # per-shader L1 data cache config  {<nsets>:<bsize>:<assoc>,<rep>:<wr>:<alloc>:<wr_alloc>,<mshr>:<N>:<merge>,<mq> | none}
-gpgpu_cache:dl1PrefL1                 none # per-shader L1 data cache config  {<nsets>:<bsize>:<assoc>,<rep>:<wr>:<alloc>:<wr_alloc>,<mshr>:<N>:<merge>,<mq> | none}
-gpgpu_cache:dl1PreShared                 none # per-shader L1 data cache config  {<nsets>:<bsize>:<assoc>,<rep>:<wr>:<alloc>:<wr_alloc>,<mshr>:<N>:<merge>,<mq> | none}
-gmem_skip_L1D                          0 # global memory access skip L1D cache (implements -Xptxas -dlcm=cg, default=no skip)
-gpgpu_perfect_mem                      0 # enable perfect memory mode (no cache miss)
-n_regfile_gating_group                    4 # group of lanes that should be read/written together)
-gpgpu_clock_gated_reg_file                    0 # enable clock gated reg file for power calculations
-gpgpu_clock_gated_lanes                    0 # enable clock gated lanes for power calculations
-gpgpu_shader_registers                32768 # Number of registers per shader core. Limits number of concurrent CTAs. (default 8192)
-gpgpu_shader_cta                       8 # Maximum number of concurrent CTAs in shader (default 8)
-gpgpu_n_clusters                      15 # number of processing clusters
-gpgpu_n_cores_per_cluster                    1 # number of simd cores per cluster
-gpgpu_n_cluster_ejection_buffer_size                    8 # number of packets in ejection buffer
-gpgpu_n_ldst_response_buffer_size                    2 # number of response packets in ld/st unit ejection buffer
-gpgpu_shmem_size                   16384 # Size of shared memory per shader core (default 16kB)
-gpgpu_shmem_size                   49152 # Size of shared memory per shader core (default 16kB)
-gpgpu_shmem_size_PrefL1                16384 # Size of shared memory per shader core (default 16kB)
-gpgpu_shmem_size_PrefShared                16384 # Size of shared memory per shader core (default 16kB)
-gpgpu_shmem_num_banks                   32 # Number of banks in the shared memory in each shader core (default 16)
-gpgpu_shmem_limited_broadcast                    0 # Limit shared memory to do one broadcast per cycle (default on)
-gpgpu_shmem_warp_parts                    1 # Number of portions a warp is divided into for shared memory bank conflict check 
-gpgpu_warpdistro_shader                   -1 # Specify which shader core to collect the warp size distribution from
-gpgpu_warp_issue_shader                    0 # Specify which shader core to collect the warp issue distribution from
-gpgpu_local_mem_map                    1 # Mapping from local memory space address to simulated GPU physical address space (default = enabled)
-gpgpu_num_reg_banks                   16 # Number of register banks (default = 8)
-gpgpu_reg_bank_use_warp_id                    0 # Use warp ID in mapping registers to banks (default = off)
-gpgpu_operand_collector_num_units_sp                    6 # number of collector units (default = 4)
-gpgpu_operand_collector_num_units_sfu                    8 # number of collector units (default = 4)
-gpgpu_operand_collector_num_units_mem                    2 # number of collector units (default = 2)
-gpgpu_operand_collector_num_units_gen                    0 # number of collector units (default = 0)
-gpgpu_operand_collector_num_in_ports_sp                    2 # number of collector unit in ports (default = 1)
-gpgpu_operand_collector_num_in_ports_sfu                    1 # number of collector unit in ports (default = 1)
-gpgpu_operand_collector_num_in_ports_mem                    1 # number of collector unit in ports (default = 1)
-gpgpu_operand_collector_num_in_ports_gen                    0 # number of collector unit in ports (default = 0)
-gpgpu_operand_collector_num_out_ports_sp                    2 # number of collector unit in ports (default = 1)
-gpgpu_operand_collector_num_out_ports_sfu                    1 # number of collector unit in ports (default = 1)
-gpgpu_operand_collector_num_out_ports_mem                    1 # number of collector unit in ports (default = 1)
-gpgpu_operand_collector_num_out_ports_gen                    0 # number of collector unit in ports (default = 0)
-gpgpu_coalesce_arch                   13 # Coalescing arch (default = 13, anything else is off for now)
-gpgpu_num_sched_per_core                    2 # Number of warp schedulers per core
-gpgpu_max_insn_issue_per_warp                    1 # Max number of instructions that can be issued per warp in one cycle by scheduler
-gpgpu_simt_core_sim_order                    1 # Select the simulation order of cores in a cluster (0=Fix, 1=Round-Robin)
-gpgpu_pipeline_widths        2,1,1,2,1,1,2 # Pipeline widths ID_OC_SP,ID_OC_SFU,ID_OC_MEM,OC_EX_SP,OC_EX_SFU,OC_EX_MEM,EX_WB
-gpgpu_num_sp_units                     2 # Number of SP units (default=1)
-gpgpu_num_sfu_units                    1 # Number of SF units (default=1)
-gpgpu_num_mem_units                    1 # Number if ldst units (default=1) WARNING: not hooked up to anything
-gpgpu_scheduler                      gto # Scheduler configuration: < lrr | gto | two_level_active > If two_level_active:<num_active_warps>:<inner_prioritization>:<outer_prioritization>For complete list of prioritization values see shader.h enum scheduler_prioritization_typeDefault: gto
-gpgpu_dram_scheduler                    1 # 0 = fifo, 1 = FR-FCFS (defaul)
-gpgpu_dram_partition_queues              8:8:8:8 # i2$:$2d:d2$:$2i
-l2_ideal                               0 # Use a ideal L2 cache that always hit
-gpgpu_cache:dl2     64:128:8,L:B:m:W,A:32:4,4:0,32 # unified banked L2 data cache config  {<nsets>:<bsize>:<assoc>,<rep>:<wr>:<alloc>:<wr_alloc>,<mshr>:<N>:<merge>,<mq>}
-gpgpu_cache:dl2_texture_only                    0 # L2 cache used for texture only
-gpgpu_n_mem                            6 # number of memory modules (e.g. memory controllers) in gpu
-gpgpu_n_sub_partition_per_mchannel                    2 # number of memory subpartition in each memory module
-gpgpu_n_mem_per_ctrlr                    2 # number of memory chips per memory controller
-gpgpu_memlatency_stat                   14 # track and display latency statistics 0x2 enables MC, 0x4 enables queue logs
-gpgpu_frfcfs_dram_sched_queue_size                   16 # 0 = unlimited (default); # entries per chip
-gpgpu_dram_return_queue_size                  116 # 0 = unlimited (default); # entries per chip
-gpgpu_dram_buswidth                    4 # default = 4 bytes (8 bytes per cycle at DDR)
-gpgpu_dram_burst_length                    8 # Burst length of each DRAM request (default = 4 data bus cycle)
-dram_data_command_freq_ratio                    4 # Frequency ratio between DRAM data bus and command bus (default = 2 times, i.e. DDR)
-gpgpu_dram_timing_opt nbk=16:CCD=2:RRD=6:RCD=12:RAS=28:RP=12:RC=40: CL=12:WL=4:CDLR=5:WR=12:nbkgrp=4:CCDL=3:RTPL=2 # DRAM timing parameters = {nbk:tCCD:tRRD:tRCD:tRAS:tRP:tRC:CL:WL:tCDLR:tWR:nbkgrp:tCCDL:tRTPL}
-rop_latency                          120 # ROP queue latency (default 85)
-dram_latency                         100 # DRAM latency (default 30)
-gpgpu_mem_addr_mapping dramid@8;00000000.00000000.00000000.00000000.0000RRRR.RRRRRRRR.BBBCCCCB.CCSSSSSS # mapping memory address to dram model {dramid@<start bit>;<memory address map>}
-gpgpu_mem_addr_test                    0 # run sweep test to check address mapping for aliased address
-gpgpu_mem_address_mask                    1 # 0 = old addressing mask, 1 = new addressing mask, 2 = new add. mask + flipped bank sel and chip sel bits
-gpuwattch_xml_file  gpuwattch_gtx480.xml # GPUWattch XML file
-power_simulation_enabled                    1 # Turn on power simulator (1=On, 0=Off)
-power_per_cycle_dump                    0 # Dump detailed power output each cycle
-power_trace_enabled                    0 # produce a file for the power trace (1=On, 0=Off)
-power_trace_zlevel                     6 # Compression level of the power trace output log (0=no comp, 9=highest)
-steady_power_levels_enabled                    0 # produce a file for the steady power levels (1=On, 0=Off)
-steady_state_definition                  8:4 # allowed deviation:number of samples
-gpgpu_max_cycle                        0 # terminates gpu simulation early (0 = no limit)
-gpgpu_max_insn                         0 # terminates gpu simulation early (0 = no limit)
-gpgpu_max_cta                          0 # terminates gpu simulation early (0 = no limit)
-gpgpu_runtime_stat                   500 # display runtime statistics such as dram utilization {<freq>:<flag>}
-liveness_message_freq                    1 # Minimum number of seconds between simulation liveness messages (0 = always print)
-gpgpu_flush_l1_cache                    0 # Flush L1 cache at the end of each kernel call
-gpgpu_flush_l2_cache                    0 # Flush L2 cache at the end of each kernel call
-gpgpu_deadlock_detect                    1 # Stop the simulation at deadlock (1=on (default), 0=off)
-gpgpu_ptx_instruction_classification                    0 # if enabled will classify ptx instruction types per kernel (Max 255 kernels now)
-gpgpu_ptx_sim_mode                     0 # Select between Performance (default) or Functional simulation (1)
-gpgpu_clock_domains 700.0:700.0:700.0:924.0 # Clock Domain Frequencies in MhZ {<Core Clock>:<ICNT Clock>:<L2 Clock>:<DRAM Clock>}
-gpgpu_max_concurrent_kernel                    8 # maximum kernels that can run concurrently on GPU
-gpgpu_cflog_interval                    0 # Interval between each snapshot in control flow logger
-visualizer_enabled                     0 # Turn on visualizer output (1=On, 0=Off)
-visualizer_outputfile                 NULL # Specifies the output log file for visualizer
-visualizer_zlevel                      6 # Compression level of the visualizer output log (0=no comp, 9=highest)
-trace_enabled                          0 # Turn on traces
-trace_components                    none # comma seperated list of traces to enable. Complete list found in trace_streams.tup. Default none
-trace_sampling_core                    0 # The core which is printed using CORE_DPRINTF. Default 0
-trace_sampling_memory_partition                   -1 # The memory partition which is printed using MEMPART_DPRINTF. Default -1 (i.e. all)
-enable_ptx_file_line_stats                    1 # Turn on PTX source line statistic profiling. (1 = On)
-ptx_line_stats_filename gpgpu_inst_stats.txt # Output file for PTX source line statistics.
-save_embedded_ptx                      0 # saves ptx files embedded in binary as <n>.ptx
-keep                                   0 # keep intermediate files created by GPGPU-Sim when interfacing with external programs
-gpgpu_ptx_save_converted_ptxplus                    0 # Saved converted ptxplus to a file
-ptx_opcode_latency_int         4,13,4,5,145 # Opcode latencies for integers <ADD,MAX,MUL,MAD,DIV>Default 1,1,19,25,145
-ptx_opcode_latency_fp          4,13,4,5,39 # Opcode latencies for single precision floating points <ADD,MAX,MUL,MAD,DIV>Default 1,1,1,1,30
-ptx_opcode_latency_dp         8,19,8,8,330 # Opcode latencies for double precision floating points <ADD,MAX,MUL,MAD,DIV>Default 8,8,8,8,335
-ptx_opcode_initiation_int            1,2,2,1,8 # Opcode initiation intervals for integers <ADD,MAX,MUL,MAD,DIV>Default 1,1,4,4,32
-ptx_opcode_initiation_fp            1,2,1,1,4 # Opcode initiation intervals for single precision floating points <ADD,MAX,MUL,MAD,DIV>Default 1,1,1,1,5
-ptx_opcode_initiation_dp         8,16,8,8,130 # Opcode initiation intervals for double precision floating points <ADD,MAX,MUL,MAD,DIV>Default 8,8,8,8,130
DRAM Timing Options:
nbk                                    16 # number of banks
CCD                                     2 # column to column delay
RRD                                     6 # minimal delay between activation of rows in different banks
RCD                                    12 # row to column delay
RAS                                    28 # time needed to activate row
RP                                     12 # time needed to precharge (deactivate) row
RC                                     40 # row cycle time
CDLR                                    5 # switching from write to read (changes tWTR)
WR                                     12 # last data-in to row precharge
CL                                     12 # CAS latency
WL                                      4 # Write latency
nbkgrp                                  4 # number of bank groups
CCDL                                    3 # column to column delay between accesses to different bank groups
RTPL                                    2 # read to precharge delay between accesses to different bank groups
Total number of memory sub partition = 12
addr_dec_mask[CHIP]  = 0000000000000000 	high:64 low:0
addr_dec_mask[BK]    = 000000000000e100 	high:16 low:8
addr_dec_mask[ROW]   = 000000000fff0000 	high:28 low:16
addr_dec_mask[COL]   = 0000000000001eff 	high:13 low:0
addr_dec_mask[BURST] = 000000000000003f 	high:6 low:0
sub_partition_id_mask = 0000000000000100
GPGPU-Sim uArch: clock freqs: 700000000.000000:700000000.000000:700000000.000000:924000000.000000
GPGPU-Sim uArch: clock periods: 0.00000000142857142857:0.00000000142857142857:0.00000000142857142857:0.00000000108225108225
*** Initializing Memory Statistics ***
GPGPU-Sim uArch: interconnect node map (shaderID+MemID to icntID)
GPGPU-Sim uArch: Memory nodes ID start from index: 15
GPGPU-Sim uArch:    0   1   2   3   4
GPGPU-Sim uArch:    5   6   7   8   9
GPGPU-Sim uArch:   10  11  12  13  14
GPGPU-Sim uArch:   15  16  17  18  19
GPGPU-Sim uArch:   20  21  22  23  24
GPGPU-Sim uArch:   25  26
GPGPU-Sim uArch: interconnect node reverse map (icntID to shaderID+MemID)
GPGPU-Sim uArch: Memory nodes start from ID: 15
GPGPU-Sim uArch:    0   1   2   3   4
GPGPU-Sim uArch:    5   6   7   8   9
GPGPU-Sim uArch:   10  11  12  13  14
GPGPU-Sim uArch:   15  16  17  18  19
GPGPU-Sim uArch:   20  21  22  23  24
GPGPU-Sim uArch:   25  26
b0b08bdbcff20f45d58123884b9aacd2  /home/jaineshdoshi/Documents/GPGPU-sim/gpgpu-sim/ispass2009-benchmarks/bin/release/BFS
GPGPU-Sim uArch: performance model initialization complete.
GPGPU-Sim PTX: __cudaRegisterFatBinary, fat_cubin_handle = 1, filename=bfs.cu
self exe links to: /home/jaineshdoshi/Documents/GPGPU-sim/gpgpu-sim/ispass2009-benchmarks/bin/release/BFS
Running md5sum using "md5sum /home/jaineshdoshi/Documents/GPGPU-sim/gpgpu-sim/ispass2009-benchmarks/bin/release/BFS "
Running cuobjdump using "$CUDA_INSTALL_PATH/bin/cuobjdump -ptx -elf -sass /home/jaineshdoshi/Documents/GPGPU-sim/gpgpu-sim/ispass2009-benchmarks/bin/release/BFS > _cuobjdump_complete_output_WhZ4r6"
Parsing file _cuobjdump_complete_output_WhZ4r6
######### cuobjdump parser ########
## Adding new section PTX
Adding ptx filename: _cuobjdump_1.ptx
Adding arch: sm_30
Adding identifier: bfs.cu
## Adding new section ELF
Adding arch: sm_30
Adding identifier: bfs.cu
## Adding new section ELF
Adding arch: sm_20
Adding identifier: bfs.cu
## Adding new section PTX
Adding ptx filename: _cuobjdump_2.ptx
Adding arch: sm_20
Adding identifier: bfs.cu
## Adding new section ELF
Adding arch: sm_10
Adding identifier: bfs.cu
## Adding new section PTX
Adding ptx filename: _cuobjdump_3.ptx
Adding arch: sm_10
Adding identifier: bfs.cu
Done parsing!!!
GPGPU-Sim PTX: __cudaRegisterFunction _Z6KernelP4NodePiPbS2_S1_S2_i : hostFun 0x0x403870, fat_cubin_handle = 1
GPGPU-Sim PTX: Warning %temp1 was declared previous at _1.ptx:58 skipping new declaration
GPGPU-Sim PTX: Warning %temp2 was declared previous at _1.ptx:59 skipping new declaration
GPGPU-Sim PTX: instruction assembly for function '_Z6KernelP4NodePiPbS2_S1_S2_i'...   done.
GPGPU-Sim PTX: finding reconvergence points for '_Z6KernelP4NodePiPbS2_S1_S2_i'...
GPGPU-Sim PTX: Finding dominators for '_Z6KernelP4NodePiPbS2_S1_S2_i'...
GPGPU-Sim PTX: Finding immediate dominators for '_Z6KernelP4NodePiPbS2_S1_S2_i'...
GPGPU-Sim PTX: Finding postdominators for '_Z6KernelP4NodePiPbS2_S1_S2_i'...
GPGPU-Sim PTX: Finding immediate postdominators for '_Z6KernelP4NodePiPbS2_S1_S2_i'...
GPGPU-Sim PTX: pre-decoding instructions for '_Z6KernelP4NodePiPbS2_S1_S2_i'...
GPGPU-Sim PTX: reconvergence points for _Z6KernelP4NodePiPbS2_S1_S2_i...
GPGPU-Sim PTX:  1 (potential) branch divergence @  PC=0x090 (_1.ptx:52) @%p1 bra BB0_7;
GPGPU-Sim PTX:    immediate post dominator      @  PC=0x208 (_1.ptx:133) ret;
GPGPU-Sim PTX:  2 (potential) branch divergence @  PC=0x0d0 (_1.ptx:65) @%p2 bra BB0_7;
GPGPU-Sim PTX:    immediate post dominator      @  PC=0x208 (_1.ptx:133) ret;
GPGPU-Sim PTX:  3 (potential) branch divergence @  PC=0x130 (_1.ptx:85) @%p3 bra BB0_7;
GPGPU-Sim PTX:    immediate post dominator      @  PC=0x208 (_1.ptx:133) ret;
GPGPU-Sim PTX:  4 (potential) branch divergence @  PC=0x190 (_1.ptx:107) @%p4 bra BB0_6;
GPGPU-Sim PTX:    immediate post dominator      @  PC=0x1d8 (_1.ptx:123) add.s32 %r29, %r29, 1;
GPGPU-Sim PTX:  5 (potential) branch divergence @  PC=0x200 (_1.ptx:129) @%p5 bra BB0_4;
GPGPU-Sim PTX:    immediate post dominator      @  PC=0x208 (_1.ptx:133) ret;
GPGPU-Sim PTX: ... end of reconvergence points for _Z6KernelP4NodePiPbS2_S1_S2_i
GPGPU-Sim PTX: ... done pre-decoding instructions for '_Z6KernelP4NodePiPbS2_S1_S2_i'.
GPGPU-Sim PTX: finished parsing EMBEDDED .ptx file _1.ptx
Adding _cuobjdump_2.ptx with cubin handle 1
GPGPU-Sim PTX: extracting embedded .ptx to temporary file "_ptx_M6gZrE"
Running: cat _ptx_M6gZrE | sed 's/.version 1.5/.version 1.4/' | sed 's/, texmode_independent//' | sed 's/\(\.extern \.const\[1\] .b8 \w\+\)\[\]/\1\[1\]/' | sed 's/const\[.\]/const\[0\]/g' > _ptx2_4IcUrc
GPGPU-Sim PTX: generating ptxinfo using "$CUDA_INSTALL_PATH/bin/ptxas --gpu-name=sm_20 -v _ptx2_4IcUrc --output-file  /dev/null 2> _ptx_M6gZrEinfo"
GPGPU-Sim PTX: Kernel '_Z6KernelP4NodePiPbS2_S1_S2_i' : regs=15, lmem=0, smem=0, cmem=84
GPGPU-Sim PTX: removing ptxinfo using "rm -f _ptx_M6gZrE _ptx2_4IcUrc _ptx_M6gZrEinfo"
GPGPU-Sim PTX: loading globals with explicit initializers... 
GPGPU-Sim PTX: finished loading globals (0 bytes total).
GPGPU-Sim PTX: loading constants with explicit initializers...  done.
Reading File
Input file: ./data/graph65536.txt
Read File
Copied Everything to GPU memory

GPGPU-Sim PTX: cudaLaunch for 0x0x403870 (mode=performance simulation) on stream 0
GPGPU-Sim PTX: pushing kernel '_Z6KernelP4NodePiPbS2_S1_S2_i' to stream 0, gridDim= (256,1,1) blockDim = (256,1,1) 
kernel '_Z6KernelP4NodePiPbS2_S1_S2_i' transfer to GPU hardware scheduler
GPGPU-Sim uArch: Shader 1 bind to kernel 1 '_Z6KernelP4NodePiPbS2_S1_S2_i'
GPGPU-Sim uArch: CTA/core = 6, limited by: threads
GPGPU-Sim uArch: core:  1, cta: 0 initialized @(1,0)
GPGPU-Sim uArch: Shader 2 bind to kernel 1 '_Z6KernelP4NodePiPbS2_S1_S2_i'
GPGPU-Sim uArch: core:  2, cta: 0 initialized @(1,0)
GPGPU-Sim uArch: Shader 3 bind to kernel 1 '_Z6KernelP4NodePiPbS2_S1_S2_i'
GPGPU-Sim uArch: core:  3, cta: 0 initialized @(1,0)
GPGPU-Sim uArch: Shader 4 bind to kernel 1 '_Z6KernelP4NodePiPbS2_S1_S2_i'
GPGPU-Sim uArch: core:  4, cta: 0 initialized @(1,0)
GPGPU-Sim uArch: Shader 5 bind to kernel 1 '_Z6KernelP4NodePiPbS2_S1_S2_i'
GPGPU-Sim uArch: core:  5, cta: 0 initialized @(1,0)
GPGPU-Sim uArch: Shader 6 bind to kernel 1 '_Z6KernelP4NodePiPbS2_S1_S2_i'
GPGPU-Sim uArch: core:  6, cta: 0 initialized @(1,0)
GPGPU-Sim uArch: Shader 7 bind to kernel 1 '_Z6KernelP4NodePiPbS2_S1_S2_i'
GPGPU-Sim uArch: core:  7, cta: 0 initialized @(1,0)
GPGPU-Sim uArch: Shader 8 bind to kernel 1 '_Z6KernelP4NodePiPbS2_S1_S2_i'
GPGPU-Sim uArch: core:  8, cta: 0 initialized @(1,0)
GPGPU-Sim uArch: Shader 9 bind to kernel 1 '_Z6KernelP4NodePiPbS2_S1_S2_i'
GPGPU-Sim uArch: core:  9, cta: 0 initialized @(1,0)
GPGPU-Sim uArch: Shader 10 bind to kernel 1 '_Z6KernelP4NodePiPbS2_S1_S2_i'
GPGPU-Sim uArch: core: 10, cta: 0 initialized @(1,0)
GPGPU-Sim uArch: Shader 11 bind to kernel 1 '_Z6KernelP4NodePiPbS2_S1_S2_i'
GPGPU-Sim uArch: core: 11, cta: 0 initialized @(1,0)
GPGPU-Sim uArch: Shader 12 bind to kernel 1 '_Z6KernelP4NodePiPbS2_S1_S2_i'
GPGPU-Sim uArch: core: 12, cta: 0 initialized @(1,0)
GPGPU-Sim uArch: Shader 13 bind to kernel 1 '_Z6KernelP4NodePiPbS2_S1_S2_i'
GPGPU-Sim uArch: core: 13, cta: 0 initialized @(1,0)
GPGPU-Sim uArch: Shader 14 bind to kernel 1 '_Z6KernelP4NodePiPbS2_S1_S2_i'
GPGPU-Sim uArch: core: 14, cta: 0 initialized @(1,0)
GPGPU-Sim uArch: Shader 0 bind to kernel 1 '_Z6KernelP4NodePiPbS2_S1_S2_i'
GPGPU-Sim uArch: core:  0, cta: 0 initialized @(1,0)
GPGPU-Sim uArch: core:  1, cta: 1 initialized @(2,0)
GPGPU-Sim uArch: core:  2, cta: 1 initialized @(2,0)
GPGPU-Sim uArch: core:  3, cta: 1 initialized @(2,0)
GPGPU-Sim uArch: core:  4, cta: 1 initialized @(2,0)
GPGPU-Sim uArch: core:  5, cta: 1 initialized @(2,0)
GPGPU-Sim uArch: core:  6, cta: 1 initialized @(2,0)
GPGPU-Sim uArch: core:  7, cta: 1 initialized @(2,0)
GPGPU-Sim uArch: core:  8, cta: 1 initialized @(2,0)
GPGPU-Sim uArch: core:  9, cta: 1 initialized @(2,0)
GPGPU-Sim uArch: core: 10, cta: 1 initialized @(2,0)
GPGPU-Sim uArch: core: 11, cta: 1 initialized @(2,0)
GPGPU-Sim uArch: core: 12, cta: 1 initialized @(2,0)
GPGPU-Sim uArch: core: 13, cta: 1 initialized @(2,0)
GPGPU-Sim uArch: core: 14, cta: 1 initialized @(2,0)
GPGPU-Sim uArch: core:  0, cta: 1 initialized @(2,0)
GPGPU-Sim uArch: core:  1, cta: 2 initialized @(3,0)
GPGPU-Sim uArch: core:  2, cta: 2 initialized @(3,0)
GPGPU-Sim uArch: core:  3, cta: 2 initialized @(3,0)
GPGPU-Sim uArch: core:  4, cta: 2 initialized @(3,0)
GPGPU-Sim uArch: core:  5, cta: 2 initialized @(3,0)
GPGPU-Sim uArch: core:  6, cta: 2 initialized @(3,0)
GPGPU-Sim uArch: core:  7, cta: 2 initialized @(3,0)
GPGPU-Sim uArch: core:  8, cta: 2 initialized @(3,0)
GPGPU-Sim uArch: core:  9, cta: 2 initialized @(3,0)
GPGPU-Sim uArch: core: 10, cta: 2 initialized @(3,0)
GPGPU-Sim uArch: core: 11, cta: 2 initialized @(3,0)
GPGPU-Sim uArch: core: 12, cta: 2 initialized @(3,0)
GPGPU-Sim uArch: core: 13, cta: 2 initialized @(3,0)
GPGPU-Sim uArch: core: 14, cta: 2 initialized @(3,0)
GPGPU-Sim uArch: core:  0, cta: 2 initialized @(3,0)
GPGPU-Sim uArch: core:  1, cta: 3 initialized @(4,0)
GPGPU-Sim uArch: core:  2, cta: 3 initialized @(4,0)
GPGPU-Sim uArch: core:  3, cta: 3 initialized @(4,0)
GPGPU-Sim uArch: core:  4, cta: 3 initialized @(4,0)
GPGPU-Sim uArch: core:  5, cta: 3 initialized @(4,0)
GPGPU-Sim uArch: core:  6, cta: 3 initialized @(4,0)
GPGPU-Sim uArch: core:  7, cta: 3 initialized @(4,0)
GPGPU-Sim uArch: core:  8, cta: 3 initialized @(4,0)
GPGPU-Sim uArch: core:  9, cta: 3 initialized @(4,0)
GPGPU-Sim uArch: core: 10, cta: 3 initialized @(4,0)
GPGPU-Sim uArch: core: 11, cta: 3 initialized @(4,0)
GPGPU-Sim uArch: core: 12, cta: 3 initialized @(4,0)
GPGPU-Sim uArch: core: 13, cta: 3 initialized @(4,0)
GPGPU-Sim uArch: core: 14, cta: 3 initialized @(4,0)
GPGPU-Sim uArch: core:  0, cta: 3 initialized @(4,0)
GPGPU-Sim uArch: core:  1, cta: 4 initialized @(5,0)
GPGPU-Sim uArch: core:  2, cta: 4 initialized @(5,0)
GPGPU-Sim uArch: core:  3, cta: 4 initialized @(5,0)
GPGPU-Sim uArch: core:  4, cta: 4 initialized @(5,0)
GPGPU-Sim uArch: core:  5, cta: 4 initialized @(5,0)
GPGPU-Sim uArch: core:  6, cta: 4 initialized @(5,0)
GPGPU-Sim uArch: core:  7, cta: 4 initialized @(5,0)
GPGPU-Sim uArch: core:  8, cta: 4 initialized @(5,0)
GPGPU-Sim uArch: core:  9, cta: 4 initialized @(5,0)
GPGPU-Sim uArch: core: 10, cta: 4 initialized @(5,0)
GPGPU-Sim uArch: core: 11, cta: 4 initialized @(5,0)
GPGPU-Sim uArch: core: 12, cta: 4 initialized @(5,0)
GPGPU-Sim uArch: core: 13, cta: 4 initialized @(5,0)
GPGPU-Sim uArch: core: 14, cta: 4 initialized @(5,0)
GPGPU-Sim uArch: core:  0, cta: 4 initialized @(5,0)
GPGPU-Sim uArch: core:  1, cta: 5 initialized @(6,0)
GPGPU-Sim uArch: core:  2, cta: 5 initialized @(6,0)
GPGPU-Sim uArch: core:  3, cta: 5 initialized @(6,0)
GPGPU-Sim uArch: core:  4, cta: 5 initialized @(6,0)
GPGPU-Sim uArch: core:  5, cta: 5 initialized @(6,0)
GPGPU-Sim uArch: core:  6, cta: 5 initialized @(6,0)
GPGPU-Sim uArch: core:  7, cta: 5 initialized @(6,0)
GPGPU-Sim uArch: core:  8, cta: 5 initialized @(6,0)
GPGPU-Sim uArch: core:  9, cta: 5 initialized @(6,0)
GPGPU-Sim uArch: core: 10, cta: 5 initialized @(6,0)
GPGPU-Sim uArch: core: 11, cta: 5 initialized @(6,0)
GPGPU-Sim uArch: core: 12, cta: 5 initialized @(6,0)
GPGPU-Sim uArch: core: 13, cta: 5 initialized @(6,0)
GPGPU-Sim uArch: core: 14, cta: 5 initialized @(6,0)
GPGPU-Sim uArch: core:  0, cta: 5 initialized @(6,0)
GPGPU-Sim uArch: cycles simulated: 500  inst.: 0 (ipc= 0.0) sim_rate=0 (inst/sec) elapsed = 0:0:00:02 / Sun Jun  5 01:57:55 2016
GPGPU-Sim PTX: 100000 instructions simulated : ctaid=(23,0,0) tid=(95,0,0)
GPGPU-Sim PTX: 200000 instructions simulated : ctaid=(59,0,0) tid=(223,0,0)
GPGPU-Sim PTX: 300000 instructions simulated : ctaid=(33,0,0) tid=(31,0,0)
GPGPU-Sim uArch: cycles simulated: 1000  inst.: 365920 (ipc=365.9) sim_rate=91480 (inst/sec) elapsed = 0:0:00:04 / Sun Jun  5 01:57:57 2016
GPGPU-Sim PTX: 400000 instructions simulated : ctaid=(56,0,0) tid=(63,0,0)
GPGPU-Sim PTX: 500000 instructions simulated : ctaid=(86,0,0) tid=(191,0,0)
GPGPU-Sim PTX: 600000 instructions simulated : ctaid=(81,0,0) tid=(154,0,0)
GPGPU-Sim uArch: cycles simulated: 1500  inst.: 598788 (ipc=399.2) sim_rate=99798 (inst/sec) elapsed = 0:0:00:06 / Sun Jun  5 01:57:59 2016
GPGPU-Sim uArch: Shader 0 finished CTA #5 (1542,0), 5 CTAs running
GPGPU-Sim uArch: Shader 0 finished CTA #0 (1542,0), 4 CTAs running
GPGPU-Sim uArch: Shader 0 finished CTA #1 (1542,0), 3 CTAs running
GPGPU-Sim uArch: core:  0, cta: 0 initialized @(1543,0)
GPGPU-Sim uArch: core:  0, cta: 1 initialized @(1544,0)
GPGPU-Sim uArch: core:  0, cta: 5 initialized @(1545,0)
GPGPU-Sim uArch: Shader 4 finished CTA #0 (1546,0), 5 CTAs running
GPGPU-Sim uArch: core:  4, cta: 0 initialized @(1547,0)
GPGPU-Sim uArch: Shader 1 finished CTA #5 (1547,0), 5 CTAs running
GPGPU-Sim uArch: core:  1, cta: 5 initialized @(1548,0)
GPGPU-Sim uArch: Shader 1 finished CTA #1 (1548,0), 5 CTAs running
GPGPU-Sim uArch: Shader 1 finished CTA #2 (1548,0), 4 CTAs running
GPGPU-Sim uArch: core:  1, cta: 1 initialized @(1549,0)
GPGPU-Sim uArch: core:  1, cta: 2 initialized @(1550,0)
GPGPU-Sim uArch: Shader 4 finished CTA #2 (1550,0), 5 CTAs running
GPGPU-Sim uArch: core:  4, cta: 2 initialized @(1551,0)
GPGPU-Sim uArch: Shader 4 finished CTA #4 (1554,0), 5 CTAs running
GPGPU-Sim uArch: Shader 4 finished CTA #5 (1554,0), 4 CTAs running
GPGPU-Sim uArch: core:  4, cta: 4 initialized @(1555,0)
GPGPU-Sim uArch: core:  4, cta: 5 initialized @(1556,0)
GPGPU-Sim uArch: Shader 0 finished CTA #2 (1559,0), 5 CTAs running
GPGPU-Sim uArch: Shader 0 finished CTA #3 (1559,0), 4 CTAs running
GPGPU-Sim uArch: Shader 0 finished CTA #4 (1559,0), 3 CTAs running
GPGPU-Sim uArch: core:  0, cta: 2 initialized @(1560,0)
GPGPU-Sim uArch: Shader 5 finished CTA #5 (1560,0), 5 CTAs running
GPGPU-Sim uArch: Shader 5 finished CTA #0 (1560,0), 4 CTAs running
GPGPU-Sim uArch: Shader 5 finished CTA #1 (1560,0), 3 CTAs running
GPGPU-Sim uArch: Shader 5 finished CTA #2 (1560,0), 2 CTAs running
GPGPU-Sim uArch: Shader 5 finished CTA #3 (1560,0), 1 CTAs running
GPGPU-Sim uArch: core:  5, cta: 0 initialized @(1561,0)
GPGPU-Sim uArch: core:  0, cta: 3 initialized @(1561,0)
GPGPU-Sim uArch: core:  5, cta: 1 initialized @(1562,0)
GPGPU-Sim uArch: core:  0, cta: 4 initialized @(1562,0)
GPGPU-Sim uArch: Shader 4 finished CTA #1 (1562,0), 5 CTAs running
GPGPU-Sim uArch: core:  4, cta: 1 initialized @(1563,0)
GPGPU-Sim uArch: core:  5, cta: 2 initialized @(1563,0)
GPGPU-Sim uArch: core:  5, cta: 3 initialized @(1564,0)
GPGPU-Sim uArch: core:  5, cta: 5 initialized @(1565,0)
GPGPU-Sim uArch: Shader 3 finished CTA #4 (1566,0), 5 CTAs running
GPGPU-Sim uArch: Shader 3 finished CTA #5 (1566,0), 4 CTAs running
GPGPU-Sim uArch: Shader 3 finished CTA #0 (1566,0), 3 CTAs running
GPGPU-Sim uArch: Shader 3 finished CTA #1 (1566,0), 2 CTAs running
GPGPU-Sim uArch: Shader 3 finished CTA #2 (1566,0), 1 CTAs running
GPGPU-Sim uArch: core:  3, cta: 0 initialized @(1567,0)
GPGPU-Sim uArch: core:  3, cta: 1 initialized @(1568,0)
GPGPU-Sim uArch: core:  3, cta: 2 initialized @(1569,0)
GPGPU-Sim uArch: core:  3, cta: 4 initialized @(1570,0)
GPGPU-Sim uArch: Shader 4 finished CTA #3 (1570,0), 5 CTAs running
GPGPU-Sim uArch: core:  4, cta: 3 initialized @(1571,0)
GPGPU-Sim uArch: core:  3, cta: 5 initialized @(1571,0)
GPGPU-Sim uArch: Shader 6 finished CTA #0 (1572,0), 5 CTAs running
GPGPU-Sim uArch: Shader 6 finished CTA #1 (1572,0), 4 CTAs running
GPGPU-Sim uArch: Shader 6 finished CTA #2 (1572,0), 3 CTAs running
GPGPU-Sim uArch: core:  6, cta: 0 initialized @(1573,0)
GPGPU-Sim uArch: Shader 1 finished CTA #3 (1573,0), 5 CTAs running
GPGPU-Sim uArch: Shader 1 finished CTA #4 (1573,0), 4 CTAs running
GPGPU-Sim uArch: core:  1, cta: 3 initialized @(1574,0)
GPGPU-Sim uArch: core:  6, cta: 1 initialized @(1574,0)
GPGPU-Sim uArch: core:  1, cta: 4 initialized @(1575,0)
GPGPU-Sim uArch: core:  6, cta: 2 initialized @(1575,0)
GPGPU-Sim uArch: Shader 2 finished CTA #5 (1578,0), 5 CTAs running
GPGPU-Sim uArch: Shader 2 finished CTA #0 (1578,0), 4 CTAs running
GPGPU-Sim uArch: Shader 2 finished CTA #1 (1578,0), 3 CTAs running
GPGPU-Sim uArch: Shader 2 finished CTA #2 (1578,0), 2 CTAs running
GPGPU-Sim uArch: core:  2, cta: 0 initialized @(1579,0)
GPGPU-Sim uArch: core:  2, cta: 1 initialized @(1580,0)
GPGPU-Sim uArch: Shader 10 finished CTA #5 (1580,0), 5 CTAs running
GPGPU-Sim uArch: Shader 10 finished CTA #0 (1580,0), 4 CTAs running
GPGPU-Sim uArch: core: 10, cta: 0 initialized @(1581,0)
GPGPU-Sim uArch: core:  2, cta: 2 initialized @(1581,0)
GPGPU-Sim uArch: core: 10, cta: 5 initialized @(1582,0)
GPGPU-Sim uArch: core:  2, cta: 5 initialized @(1582,0)
GPGPU-Sim uArch: Shader 10 finished CTA #2 (1584,0), 5 CTAs running
GPGPU-Sim uArch: Shader 10 finished CTA #3 (1584,0), 4 CTAs running
GPGPU-Sim uArch: core: 10, cta: 2 initialized @(1585,0)
GPGPU-Sim uArch: core: 10, cta: 3 initialized @(1586,0)
GPGPU-Sim uArch: Shader 12 finished CTA #5 (1590,0), 5 CTAs running
GPGPU-Sim uArch: Shader 12 finished CTA #0 (1590,0), 4 CTAs running
GPGPU-Sim uArch: Shader 12 finished CTA #1 (1590,0), 3 CTAs running
GPGPU-Sim uArch: Shader 12 finished CTA #2 (1590,0), 2 CTAs running
GPGPU-Sim uArch: core: 12, cta: 0 initialized @(1591,0)
GPGPU-Sim uArch: Shader 3 finished CTA #3 (1591,0), 5 CTAs running
GPGPU-Sim uArch: core:  3, cta: 3 initialized @(1592,0)
GPGPU-Sim uArch: core: 12, cta: 1 initialized @(1592,0)
GPGPU-Sim uArch: Shader 8 finished CTA #4 (1592,0), 5 CTAs running
GPGPU-Sim uArch: Shader 8 finished CTA #5 (1592,0), 4 CTAs running
GPGPU-Sim uArch: core:  8, cta: 4 initialized @(1593,0)
GPGPU-Sim uArch: core: 12, cta: 2 initialized @(1593,0)
GPGPU-Sim uArch: Shader 5 finished CTA #4 (1593,0), 5 CTAs running
GPGPU-Sim uArch: core:  5, cta: 4 initialized @(1594,0)
GPGPU-Sim uArch: core:  8, cta: 5 initialized @(1594,0)
GPGPU-Sim uArch: core: 12, cta: 5 initialized @(1594,0)
GPGPU-Sim uArch: Shader 8 finished CTA #1 (1596,0), 5 CTAs running
GPGPU-Sim uArch: Shader 8 finished CTA #2 (1596,0), 4 CTAs running
GPGPU-Sim uArch: core:  8, cta: 1 initialized @(1597,0)
GPGPU-Sim uArch: Shader 6 finished CTA #3 (1597,0), 5 CTAs running
GPGPU-Sim uArch: Shader 6 finished CTA #4 (1597,0), 4 CTAs running
GPGPU-Sim uArch: Shader 6 finished CTA #5 (1597,0), 3 CTAs running
GPGPU-Sim uArch: core:  6, cta: 3 initialized @(1598,0)
GPGPU-Sim uArch: core:  8, cta: 2 initialized @(1598,0)
GPGPU-Sim uArch: core:  6, cta: 4 initialized @(1599,0)
GPGPU-Sim uArch: core:  6, cta: 5 initialized @(1600,0)
GPGPU-Sim uArch: Shader 10 finished CTA #1 (1600,0), 5 CTAs running
GPGPU-Sim uArch: core: 10, cta: 1 initialized @(1601,0)
GPGPU-Sim uArch: Shader 9 finished CTA #5 (1602,0), 5 CTAs running
GPGPU-Sim uArch: Shader 9 finished CTA #0 (1602,0), 4 CTAs running
GPGPU-Sim uArch: Shader 9 finished CTA #1 (1602,0), 3 CTAs running
GPGPU-Sim uArch: Shader 9 finished CTA #2 (1602,0), 2 CTAs running
GPGPU-Sim uArch: Shader 9 finished CTA #3 (1602,0), 1 CTAs running
GPGPU-Sim uArch: core:  9, cta: 0 initialized @(1603,0)
GPGPU-Sim uArch: Shader 2 finished CTA #3 (1603,0), 5 CTAs running
GPGPU-Sim uArch: Shader 2 finished CTA #4 (1603,0), 4 CTAs running
GPGPU-Sim uArch: core:  2, cta: 3 initialized @(1604,0)
GPGPU-Sim uArch: core:  9, cta: 1 initialized @(1604,0)
GPGPU-Sim uArch: core:  2, cta: 4 initialized @(1605,0)
GPGPU-Sim uArch: core:  9, cta: 2 initialized @(1605,0)
GPGPU-Sim uArch: core:  9, cta: 3 initialized @(1606,0)
GPGPU-Sim uArch: core:  9, cta: 5 initialized @(1607,0)
GPGPU-Sim uArch: Shader 7 finished CTA #4 (1608,0), 5 CTAs running
GPGPU-Sim uArch: Shader 7 finished CTA #5 (1608,0), 4 CTAs running
GPGPU-Sim uArch: Shader 7 finished CTA #0 (1608,0), 3 CTAs running
GPGPU-Sim uArch: Shader 7 finished CTA #1 (1608,0), 2 CTAs running
GPGPU-Sim uArch: Shader 7 finished CTA #2 (1608,0), 1 CTAs running
GPGPU-Sim uArch: core:  7, cta: 0 initialized @(1609,0)
GPGPU-Sim uArch: core:  7, cta: 1 initialized @(1610,0)
GPGPU-Sim uArch: core:  7, cta: 2 initialized @(1611,0)
GPGPU-Sim uArch: core:  7, cta: 4 initialized @(1612,0)
GPGPU-Sim uArch: Shader 8 finished CTA #0 (1612,0), 5 CTAs running
GPGPU-Sim uArch: core:  8, cta: 0 initialized @(1613,0)
GPGPU-Sim uArch: core:  7, cta: 5 initialized @(1613,0)
GPGPU-Sim uArch: Shader 11 finished CTA #4 (1614,0), 5 CTAs running
GPGPU-Sim uArch: Shader 11 finished CTA #5 (1614,0), 4 CTAs running
GPGPU-Sim uArch: Shader 11 finished CTA #0 (1614,0), 3 CTAs running
GPGPU-Sim uArch: Shader 11 finished CTA #1 (1614,0), 2 CTAs running
GPGPU-Sim uArch: Shader 11 finished CTA #2 (1614,0), 1 CTAs running
GPGPU-Sim uArch: core: 11, cta: 0 initialized @(1615,0)
GPGPU-Sim uArch: Shader 12 finished CTA #3 (1615,0), 5 CTAs running
GPGPU-Sim uArch: Shader 12 finished CTA #4 (1615,0), 4 CTAs running
GPGPU-Sim uArch: core: 12, cta: 3 initialized @(1616,0)
GPGPU-Sim uArch: core: 11, cta: 1 initialized @(1616,0)
GPGPU-Sim uArch: Shader 10 finished CTA #4 (1616,0), 5 CTAs running
GPGPU-Sim uArch: core: 12, cta: 4 initialized @(1617,0)
GPGPU-Sim uArch: core: 10, cta: 4 initialized @(1617,0)
GPGPU-Sim uArch: core: 11, cta: 2 initialized @(1617,0)
GPGPU-Sim uArch: core: 11, cta: 4 initialized @(1618,0)
GPGPU-Sim uArch: core: 11, cta: 5 initialized @(1619,0)
GPGPU-Sim uArch: Shader 13 finished CTA #5 (1620,0), 5 CTAs running
GPGPU-Sim uArch: Shader 13 finished CTA #0 (1620,0), 4 CTAs running
GPGPU-Sim uArch: Shader 13 finished CTA #1 (1620,0), 3 CTAs running
GPGPU-Sim uArch: Shader 13 finished CTA #2 (1620,0), 2 CTAs running
GPGPU-Sim uArch: Shader 13 finished CTA #3 (1620,0), 1 CTAs running
GPGPU-Sim uArch: core: 13, cta: 0 initialized @(1621,0)
GPGPU-Sim uArch: core: 13, cta: 1 initialized @(1622,0)
GPGPU-Sim uArch: core: 13, cta: 2 initialized @(1623,0)
GPGPU-Sim uArch: core: 13, cta: 3 initialized @(1624,0)
GPGPU-Sim uArch: core: 13, cta: 5 initialized @(1625,0)
GPGPU-Sim uArch: Shader 14 finished CTA #4 (1626,0), 5 CTAs running
GPGPU-Sim uArch: Shader 14 finished CTA #5 (1626,0), 4 CTAs running
GPGPU-Sim uArch: Shader 14 finished CTA #0 (1626,0), 3 CTAs running
GPGPU-Sim uArch: Shader 14 finished CTA #1 (1626,0), 2 CTAs running
GPGPU-Sim uArch: core: 14, cta: 0 initialized @(1627,0)
GPGPU-Sim uArch: core: 14, cta: 1 initialized @(1628,0)
GPGPU-Sim uArch: Shader 8 finished CTA #3 (1628,0), 5 CTAs running
GPGPU-Sim uArch: core:  8, cta: 3 initialized @(1629,0)
GPGPU-Sim uArch: core: 14, cta: 4 initialized @(1629,0)
GPGPU-Sim uArch: core: 14, cta: 5 initialized @(1630,0)
GPGPU-Sim uArch: Shader 7 finished CTA #3 (1633,0), 5 CTAs running
GPGPU-Sim uArch: core:  7, cta: 3 initialized @(1634,0)
GPGPU-Sim uArch: Shader 9 finished CTA #4 (1635,0), 5 CTAs running
GPGPU-Sim uArch: core:  9, cta: 4 initialized @(1636,0)
GPGPU-Sim uArch: Shader 11 finished CTA #3 (1639,0), 5 CTAs running
GPGPU-Sim uArch: core: 11, cta: 3 initialized @(1640,0)
GPGPU-Sim uArch: Shader 14 finished CTA #2 (1643,0), 5 CTAs running
GPGPU-Sim uArch: Shader 14 finished CTA #3 (1643,0), 4 CTAs running
GPGPU-Sim uArch: core: 14, cta: 2 initialized @(1644,0)
GPGPU-Sim uArch: core: 14, cta: 3 initialized @(1645,0)
GPGPU-Sim uArch: Shader 13 finished CTA #4 (1653,0), 5 CTAs running
GPGPU-Sim uArch: core: 13, cta: 4 initialized @(1654,0)
GPGPU-Sim PTX: 700000 instructions simulated : ctaid=(144,0,0) tid=(22,0,0)
GPGPU-Sim PTX: 800000 instructions simulated : ctaid=(136,0,0) tid=(22,0,0)
GPGPU-Sim PTX: 900000 instructions simulated : ctaid=(152,0,0) tid=(78,0,0)
GPGPU-Sim uArch: cycles simulated: 2000  inst.: 934958 (ipc=467.5) sim_rate=103884 (inst/sec) elapsed = 0:0:00:09 / Sun Jun  5 01:58:02 2016
GPGPU-Sim PTX: 1000000 instructions simulated : ctaid=(154,0,0) tid=(206,0,0)
GPGPU-Sim uArch: Shader 1 finished CTA #5 (2015,0), 5 CTAs running
GPGPU-Sim uArch: core:  1, cta: 5 initialized @(2016,0)
GPGPU-Sim uArch: Shader 0 finished CTA #0 (2030,0), 5 CTAs running
GPGPU-Sim uArch: core:  0, cta: 0 initialized @(2031,0)
GPGPU-Sim uArch: Shader 4 finished CTA #0 (2032,0), 5 CTAs running
GPGPU-Sim uArch: core:  4, cta: 0 initialized @(2033,0)
GPGPU-Sim uArch: Shader 5 finished CTA #0 (2046,0), 5 CTAs running
GPGPU-Sim uArch: core:  5, cta: 0 initialized @(2047,0)
GPGPU-Sim uArch: Shader 3 finished CTA #0 (2051,0), 5 CTAs running
GPGPU-Sim uArch: core:  3, cta: 0 initialized @(2052,0)
GPGPU-Sim uArch: Shader 6 finished CTA #0 (2053,0), 5 CTAs running
GPGPU-Sim uArch: core:  6, cta: 0 initialized @(2054,0)
GPGPU-Sim uArch: Shader 2 finished CTA #0 (2060,0), 5 CTAs running
GPGPU-Sim uArch: core:  2, cta: 0 initialized @(2061,0)
GPGPU-Sim uArch: Shader 10 finished CTA #0 (2066,0), 5 CTAs running
GPGPU-Sim uArch: core: 10, cta: 0 initialized @(2067,0)
GPGPU-Sim uArch: Shader 9 finished CTA #0 (2085,0), 5 CTAs running
GPGPU-Sim uArch: core:  9, cta: 0 initialized @(2086,0)
GPGPU-Sim uArch: Shader 1 finished CTA #1 (2089,0), 5 CTAs running
GPGPU-Sim uArch: core:  1, cta: 1 initialized @(2090,0)
GPGPU-Sim uArch: Shader 8 finished CTA #4 (2090,0), 5 CTAs running
GPGPU-Sim uArch: core:  8, cta: 4 initialized @(2091,0)
GPGPU-Sim uArch: Shader 12 finished CTA #0 (2091,0), 5 CTAs running
GPGPU-Sim uArch: core: 12, cta: 0 initialized @(2092,0)
GPGPU-Sim uArch: Shader 0 finished CTA #1 (2110,0), 5 CTAs running
GPGPU-Sim uArch: Shader 11 finished CTA #0 (2110,0), 5 CTAs running
GPGPU-Sim uArch: core:  0, cta: 1 initialized @(2111,0)
GPGPU-Sim uArch: core: 11, cta: 0 initialized @(2111,0)
GPGPU-Sim uArch: Shader 5 finished CTA #1 (2116,0), 5 CTAs running
GPGPU-Sim uArch: core:  5, cta: 1 initialized @(2117,0)
GPGPU-Sim uArch: Shader 7 finished CTA #0 (2117,0), 5 CTAs running
GPGPU-Sim uArch: core:  7, cta: 0 initialized @(2118,0)
GPGPU-Sim uArch: Shader 4 finished CTA #2 (2118,0), 5 CTAs running
GPGPU-Sim uArch: Shader 14 finished CTA #0 (2118,0), 5 CTAs running
GPGPU-Sim uArch: core: 14, cta: 0 initialized @(2119,0)
GPGPU-Sim uArch: core:  4, cta: 2 initialized @(2119,0)
GPGPU-Sim uArch: Shader 13 finished CTA #0 (2120,0), 5 CTAs running
GPGPU-Sim uArch: core: 13, cta: 0 initialized @(2121,0)
GPGPU-Sim PTX: 1100000 instructions simulated : ctaid=(111,0,0) tid=(14,0,0)
GPGPU-Sim uArch: Shader 6 finished CTA #1 (2123,0), 5 CTAs running
GPGPU-Sim uArch: core:  6, cta: 1 initialized @(2124,0)
GPGPU-Sim uArch: Shader 3 finished CTA #1 (2133,0), 5 CTAs running
GPGPU-Sim uArch: core:  3, cta: 1 initialized @(2134,0)
GPGPU-Sim uArch: Shader 2 finished CTA #1 (2138,0), 5 CTAs running
GPGPU-Sim uArch: core:  2, cta: 1 initialized @(2139,0)
GPGPU-Sim uArch: Shader 10 finished CTA #5 (2148,0), 5 CTAs running
GPGPU-Sim uArch: core: 10, cta: 5 initialized @(2149,0)
GPGPU-Sim uArch: Shader 9 finished CTA #1 (2151,0), 5 CTAs running
GPGPU-Sim uArch: core:  9, cta: 1 initialized @(2152,0)
GPGPU-Sim uArch: Shader 12 finished CTA #1 (2159,0), 5 CTAs running
GPGPU-Sim uArch: core: 12, cta: 1 initialized @(2160,0)
GPGPU-Sim uArch: Shader 8 finished CTA #5 (2162,0), 5 CTAs running
GPGPU-Sim uArch: core:  8, cta: 5 initialized @(2163,0)
GPGPU-Sim uArch: Shader 7 finished CTA #1 (2163,0), 5 CTAs running
GPGPU-Sim uArch: core:  7, cta: 1 initialized @(2164,0)
GPGPU-Sim uArch: Shader 1 finished CTA #2 (2175,0), 5 CTAs running
GPGPU-Sim uArch: Shader 13 finished CTA #1 (2175,0), 5 CTAs running
GPGPU-Sim uArch: core: 13, cta: 1 initialized @(2176,0)
GPGPU-Sim uArch: core:  1, cta: 2 initialized @(2176,0)
GPGPU-Sim uArch: Shader 14 finished CTA #1 (2182,0), 5 CTAs running
GPGPU-Sim uArch: core: 14, cta: 1 initialized @(2183,0)
GPGPU-Sim uArch: Shader 11 finished CTA #1 (2185,0), 5 CTAs running
GPGPU-Sim uArch: core: 11, cta: 1 initialized @(2186,0)
GPGPU-Sim uArch: Shader 0 finished CTA #5 (2188,0), 5 CTAs running
GPGPU-Sim uArch: core:  0, cta: 5 initialized @(2189,0)
GPGPU-Sim uArch: Shader 5 finished CTA #2 (2198,0), 5 CTAs running
GPGPU-Sim uArch: core:  5, cta: 2 initialized @(2199,0)
GPGPU-Sim uArch: Shader 4 finished CTA #4 (2199,0), 5 CTAs running
GPGPU-Sim uArch: core:  4, cta: 4 initialized @(2200,0)
GPGPU-Sim uArch: Shader 6 finished CTA #2 (2202,0), 5 CTAs running
GPGPU-Sim uArch: core:  6, cta: 2 initialized @(2203,0)
GPGPU-Sim uArch: Shader 3 finished CTA #2 (2220,0), 5 CTAs running
GPGPU-Sim uArch: core:  3, cta: 2 initialized @(2221,0)
GPGPU-Sim uArch: Shader 2 finished CTA #2 (2226,0), 5 CTAs running
GPGPU-Sim uArch: core:  2, cta: 2 initialized @(2227,0)
GPGPU-Sim uArch: Shader 12 finished CTA #2 (2228,0), 5 CTAs running
GPGPU-Sim uArch: core: 12, cta: 2 initialized @(2229,0)
GPGPU-Sim PTX: 1200000 instructions simulated : ctaid=(189,0,0) tid=(140,0,0)
GPGPU-Sim uArch: Shader 10 finished CTA #2 (2234,0), 5 CTAs running
GPGPU-Sim uArch: core: 10, cta: 2 initialized @(2235,0)
GPGPU-Sim uArch: Shader 9 finished CTA #2 (2237,0), 5 CTAs running
GPGPU-Sim uArch: core:  9, cta: 2 initialized @(2238,0)
GPGPU-Sim uArch: Shader 7 finished CTA #2 (2241,0), 5 CTAs running
GPGPU-Sim uArch: core:  7, cta: 2 initialized @(2242,0)
GPGPU-Sim uArch: Shader 8 finished CTA #1 (2252,0), 5 CTAs running
GPGPU-Sim uArch: core:  8, cta: 1 initialized @(2253,0)
GPGPU-Sim uArch: Shader 13 finished CTA #2 (2263,0), 5 CTAs running
GPGPU-Sim uArch: core: 13, cta: 2 initialized @(2264,0)
GPGPU-Sim uArch: Shader 11 finished CTA #2 (2269,0), 5 CTAs running
GPGPU-Sim uArch: core: 11, cta: 2 initialized @(2270,0)
GPGPU-Sim uArch: Shader 1 finished CTA #3 (2270,0), 5 CTAs running
GPGPU-Sim uArch: core:  1, cta: 3 initialized @(2271,0)
GPGPU-Sim uArch: Shader 14 finished CTA #4 (2272,0), 5 CTAs running
GPGPU-Sim uArch: core: 14, cta: 4 initialized @(2273,0)
GPGPU-Sim uArch: Shader 4 finished CTA #5 (2298,0), 5 CTAs running
GPGPU-Sim uArch: Shader 5 finished CTA #3 (2298,0), 5 CTAs running
GPGPU-Sim uArch: core:  4, cta: 5 initialized @(2299,0)
GPGPU-Sim uArch: core:  5, cta: 3 initialized @(2299,0)
GPGPU-Sim uArch: Shader 6 finished CTA #3 (2306,0), 5 CTAs running
GPGPU-Sim uArch: core:  6, cta: 3 initialized @(2307,0)
GPGPU-Sim uArch: Shader 3 finished CTA #4 (2307,0), 5 CTAs running
GPGPU-Sim uArch: core:  3, cta: 4 initialized @(2308,0)
GPGPU-Sim uArch: Shader 10 finished CTA #3 (2308,0), 5 CTAs running
GPGPU-Sim uArch: core: 10, cta: 3 initialized @(2309,0)
GPGPU-Sim uArch: Shader 0 finished CTA #2 (2310,0), 5 CTAs running
GPGPU-Sim uArch: core:  0, cta: 2 initialized @(2311,0)
GPGPU-Sim uArch: Shader 9 finished CTA #3 (2334,0), 5 CTAs running
GPGPU-Sim uArch: core:  9, cta: 3 initialized @(2335,0)
GPGPU-Sim uArch: Shader 8 finished CTA #2 (2338,0), 5 CTAs running
GPGPU-Sim uArch: core:  8, cta: 2 initialized @(2339,0)
GPGPU-Sim PTX: 1300000 instructions simulated : ctaid=(145,0,0) tid=(108,0,0)
GPGPU-Sim uArch: Shader 2 finished CTA #5 (2340,0), 5 CTAs running
GPGPU-Sim uArch: core:  2, cta: 5 initialized @(2341,0)
GPGPU-Sim uArch: Shader 12 finished CTA #5 (2342,0), 5 CTAs running
GPGPU-Sim uArch: core: 12, cta: 5 initialized @(2343,0)
GPGPU-Sim uArch: Shader 7 finished CTA #4 (2344,0), 5 CTAs running
GPGPU-Sim uArch: Shader 11 finished CTA #4 (2344,0), 5 CTAs running
GPGPU-Sim uArch: core:  7, cta: 4 initialized @(2345,0)
GPGPU-Sim uArch: core: 11, cta: 4 initialized @(2345,0)
GPGPU-Sim uArch: Shader 13 finished CTA #3 (2363,0), 5 CTAs running
GPGPU-Sim uArch: core: 13, cta: 3 initialized @(2364,0)
GPGPU-Sim uArch: Shader 14 finished CTA #5 (2374,0), 5 CTAs running
GPGPU-Sim uArch: core: 14, cta: 5 initialized @(2375,0)
GPGPU-Sim uArch: Shader 1 finished CTA #4 (2384,0), 5 CTAs running
GPGPU-Sim uArch: core:  1, cta: 4 initialized @(2385,0)
GPGPU-Sim uArch: Shader 9 finished CTA #5 (2428,0), 5 CTAs running
GPGPU-Sim uArch: core:  9, cta: 5 initialized @(2429,0)
GPGPU-Sim uArch: Shader 4 finished CTA #1 (2435,0), 5 CTAs running
GPGPU-Sim uArch: core:  4, cta: 1 initialized @(2436,0)
GPGPU-Sim uArch: Shader 0 finished CTA #3 (2436,0), 5 CTAs running
GPGPU-Sim uArch: core:  0, cta: 3 initialized @(2437,0)
GPGPU-Sim uArch: Shader 5 finished CTA #5 (2441,0), 5 CTAs running
GPGPU-Sim uArch: core:  5, cta: 5 initialized @(2442,0)
GPGPU-Sim uArch: Shader 3 finished CTA #5 (2446,0), 5 CTAs running
GPGPU-Sim uArch: core:  3, cta: 5 initialized @(2447,0)
GPGPU-Sim PTX: 1400000 instructions simulated : ctaid=(174,0,0) tid=(236,0,0)
GPGPU-Sim uArch: Shader 10 finished CTA #1 (2463,0), 5 CTAs running
GPGPU-Sim uArch: core: 10, cta: 1 initialized @(2464,0)
GPGPU-Sim uArch: Shader 11 finished CTA #5 (2469,0), 5 CTAs running
GPGPU-Sim uArch: core: 11, cta: 5 initialized @(2470,0)
GPGPU-Sim uArch: Shader 6 finished CTA #4 (2475,0), 5 CTAs running
GPGPU-Sim uArch: core:  6, cta: 4 initialized @(2476,0)
GPGPU-Sim uArch: Shader 2 finished CTA #3 (2492,0), 5 CTAs running
GPGPU-Sim uArch: core:  2, cta: 3 initialized @(2493,0)
GPGPU-Sim uArch: cycles simulated: 2500  inst.: 1387891 (ipc=555.2) sim_rate=106760 (inst/sec) elapsed = 0:0:00:13 / Sun Jun  5 01:58:06 2016
GPGPU-Sim uArch: Shader 12 finished CTA #3 (2504,0), 5 CTAs running
GPGPU-Sim uArch: core: 12, cta: 3 initialized @(2505,0)
GPGPU-Sim uArch: Shader 13 finished CTA #5 (2509,0), 5 CTAs running
GPGPU-Sim uArch: core: 13, cta: 5 initialized @(2510,0)
GPGPU-Sim uArch: Shader 7 finished CTA #5 (2526,0), 5 CTAs running
GPGPU-Sim uArch: core:  7, cta: 5 initialized @(2527,0)
GPGPU-Sim uArch: Shader 8 finished CTA #0 (2527,0), 5 CTAs running
GPGPU-Sim uArch: core:  8, cta: 0 initialized @(2528,0)
GPGPU-Sim uArch: Shader 14 finished CTA #2 (2552,0), 5 CTAs running
GPGPU-Sim uArch: core: 14, cta: 2 initialized @(2553,0)
GPGPU-Sim PTX: 1500000 instructions simulated : ctaid=(216,0,0) tid=(138,0,0)
GPGPU-Sim uArch: Shader 1 finished CTA #5 (2589,0), 5 CTAs running
GPGPU-Sim uArch: core:  1, cta: 5 initialized @(2590,0)
GPGPU-Sim uArch: Shader 4 finished CTA #3 (2590,0), 5 CTAs running
GPGPU-Sim uArch: core:  4, cta: 3 initialized @(2591,0)
GPGPU-Sim uArch: Shader 0 finished CTA #4 (2592,0), 5 CTAs running
GPGPU-Sim uArch: Shader 3 finished CTA #3 (2619,0), 5 CTAs running
GPGPU-Sim uArch: Shader 5 finished CTA #4 (2619,0), 5 CTAs running
GPGPU-Sim uArch: Shader 6 finished CTA #5 (2624,0), 5 CTAs running
GPGPU-Sim uArch: Shader 10 finished CTA #4 (2633,0), 5 CTAs running
GPGPU-Sim uArch: Shader 2 finished CTA #4 (2638,0), 5 CTAs running
GPGPU-Sim uArch: Shader 12 finished CTA #4 (2642,0), 5 CTAs running
GPGPU-Sim uArch: Shader 11 finished CTA #3 (2647,0), 5 CTAs running
GPGPU-Sim uArch: Shader 9 finished CTA #4 (2653,0), 5 CTAs running
GPGPU-Sim uArch: Shader 13 finished CTA #4 (2658,0), 5 CTAs running
GPGPU-Sim PTX: 1600000 instructions simulated : ctaid=(239,0,0) tid=(170,0,0)
GPGPU-Sim uArch: Shader 8 finished CTA #3 (2669,0), 5 CTAs running
GPGPU-Sim uArch: Shader 14 finished CTA #3 (2669,0), 5 CTAs running
GPGPU-Sim uArch: Shader 7 finished CTA #3 (2674,0), 5 CTAs running
GPGPU-Sim uArch: Shader 1 finished CTA #1 (2679,0), 5 CTAs running
GPGPU-Sim uArch: Shader 5 finished CTA #0 (2709,0), 4 CTAs running
GPGPU-Sim uArch: Shader 0 finished CTA #0 (2710,0), 4 CTAs running
GPGPU-Sim uArch: Shader 9 finished CTA #0 (2724,0), 4 CTAs running
GPGPU-Sim uArch: Shader 6 finished CTA #0 (2725,0), 4 CTAs running
GPGPU-Sim uArch: Shader 3 finished CTA #0 (2735,0), 4 CTAs running
GPGPU-Sim uArch: Shader 4 finished CTA #0 (2738,0), 5 CTAs running
GPGPU-Sim uArch: Shader 2 finished CTA #0 (2742,0), 4 CTAs running
GPGPU-Sim uArch: Shader 10 finished CTA #0 (2742,0), 4 CTAs running
GPGPU-Sim uArch: Shader 12 finished CTA #0 (2751,0), 4 CTAs running
GPGPU-Sim uArch: Shader 13 finished CTA #0 (2760,0), 4 CTAs running
GPGPU-Sim uArch: Shader 11 finished CTA #0 (2765,0), 4 CTAs running
GPGPU-Sim uArch: Shader 7 finished CTA #0 (2766,0), 4 CTAs running
GPGPU-Sim uArch: Shader 8 finished CTA #4 (2776,0), 4 CTAs running
GPGPU-Sim uArch: Shader 14 finished CTA #0 (2777,0), 4 CTAs running
GPGPU-Sim PTX: 1700000 instructions simulated : ctaid=(232,0,0) tid=(230,0,0)
GPGPU-Sim uArch: Shader 5 finished CTA #1 (2797,0), 3 CTAs running
GPGPU-Sim uArch: Shader 10 finished CTA #5 (2798,0), 3 CTAs running
GPGPU-Sim uArch: Shader 0 finished CTA #1 (2807,0), 3 CTAs running
GPGPU-Sim uArch: Shader 6 finished CTA #1 (2810,0), 3 CTAs running
GPGPU-Sim uArch: Shader 9 finished CTA #1 (2810,0), 3 CTAs running
GPGPU-Sim uArch: Shader 1 finished CTA #2 (2813,0), 4 CTAs running
GPGPU-Sim uArch: Shader 4 finished CTA #2 (2817,0), 4 CTAs running
GPGPU-Sim uArch: Shader 2 finished CTA #1 (2828,0), 3 CTAs running
GPGPU-Sim uArch: Shader 7 finished CTA #1 (2831,0), 3 CTAs running
GPGPU-Sim uArch: Shader 3 finished CTA #1 (2833,0), 3 CTAs running
GPGPU-Sim uArch: Shader 12 finished CTA #1 (2834,0), 3 CTAs running
GPGPU-Sim uArch: Shader 1 finished CTA #3 (2865,0), 3 CTAs running
GPGPU-Sim uArch: Shader 8 finished CTA #5 (2869,0), 3 CTAs running
GPGPU-Sim uArch: Shader 13 finished CTA #1 (2875,0), 3 CTAs running
GPGPU-Sim uArch: Shader 11 finished CTA #1 (2876,0), 3 CTAs running
GPGPU-Sim uArch: Shader 10 finished CTA #2 (2891,0), 2 CTAs running
GPGPU-Sim uArch: Shader 14 finished CTA #1 (2891,0), 3 CTAs running
GPGPU-Sim uArch: Shader 3 finished CTA #2 (2908,0), 2 CTAs running
GPGPU-Sim uArch: Shader 0 finished CTA #5 (2910,0), 2 CTAs running
GPGPU-Sim uArch: Shader 4 finished CTA #4 (2913,0), 3 CTAs running
GPGPU-Sim uArch: Shader 9 finished CTA #2 (2921,0), 2 CTAs running
GPGPU-Sim uArch: Shader 5 finished CTA #2 (2924,0), 2 CTAs running
GPGPU-Sim uArch: Shader 6 finished CTA #2 (2927,0), 2 CTAs running
GPGPU-Sim uArch: Shader 2 finished CTA #2 (2930,0), 2 CTAs running
GPGPU-Sim uArch: Shader 7 finished CTA #2 (2934,0), 2 CTAs running
GPGPU-Sim uArch: Shader 11 finished CTA #2 (2940,0), 2 CTAs running
GPGPU-Sim uArch: Shader 1 finished CTA #4 (2950,0), 2 CTAs running
GPGPU-Sim uArch: Shader 12 finished CTA #2 (2954,0), 2 CTAs running
GPGPU-Sim uArch: Shader 0 finished CTA #2 (2959,0), 1 CTAs running
GPGPU-Sim uArch: Shader 8 finished CTA #1 (2959,0), 2 CTAs running
GPGPU-Sim uArch: Shader 4 finished CTA #5 (2979,0), 2 CTAs running
GPGPU-Sim PTX: 1800000 instructions simulated : ctaid=(245,0,0) tid=(230,0,0)
GPGPU-Sim uArch: Shader 3 finished CTA #4 (2986,0), 1 CTAs running
GPGPU-Sim uArch: Shader 14 finished CTA #4 (2990,0), 2 CTAs running
GPGPU-Sim uArch: Shader 12 finished CTA #5 (2991,0), 1 CTAs running
GPGPU-Sim uArch: Shader 13 finished CTA #2 (2991,0), 2 CTAs running
GPGPU-Sim uArch: cycles simulated: 3000  inst.: 1734965 (ipc=578.3) sim_rate=115664 (inst/sec) elapsed = 0:0:00:15 / Sun Jun  5 01:58:08 2016
GPGPU-Sim uArch: Shader 5 finished CTA #3 (3004,0), 1 CTAs running
GPGPU-Sim uArch: Shader 6 finished CTA #3 (3004,0), 1 CTAs running
GPGPU-Sim uArch: Shader 8 finished CTA #2 (3005,0), 1 CTAs running
GPGPU-Sim uArch: Shader 2 finished CTA #5 (3009,0), 1 CTAs running
GPGPU-Sim uArch: Shader 9 finished CTA #3 (3014,0), 1 CTAs running
GPGPU-Sim uArch: Shader 14 finished CTA #5 (3019,0), 1 CTAs running
GPGPU-Sim uArch: Shader 7 finished CTA #4 (3022,0), 1 CTAs running
GPGPU-Sim uArch: Shader 10 finished CTA #3 (3032,0), 1 CTAs running
GPGPU-Sim uArch: Shader 0 finished CTA #3 (3042,0), 0 CTAs running
GPGPU-Sim uArch: Shader 0 empty (release kernel 1 '_Z6KernelP4NodePiPbS2_S1_S2_i').
GPGPU-Sim uArch: Shader 5 finished CTA #5 (3044,0), 0 CTAs running
GPGPU-Sim uArch: Shader 5 empty (release kernel 1 '_Z6KernelP4NodePiPbS2_S1_S2_i').
GPGPU-Sim uArch: Shader 13 finished CTA #3 (3046,0), 1 CTAs running
GPGPU-Sim uArch: Shader 10 finished CTA #1 (3056,0), 0 CTAs running
GPGPU-Sim uArch: Shader 10 empty (release kernel 1 '_Z6KernelP4NodePiPbS2_S1_S2_i').
GPGPU-Sim uArch: Shader 3 finished CTA #5 (3057,0), 0 CTAs running
GPGPU-Sim uArch: Shader 3 empty (release kernel 1 '_Z6KernelP4NodePiPbS2_S1_S2_i').
GPGPU-Sim uArch: Shader 11 finished CTA #4 (3064,0), 1 CTAs running
GPGPU-Sim uArch: Shader 6 finished CTA #4 (3069,0), 0 CTAs running
GPGPU-Sim uArch: Shader 6 empty (release kernel 1 '_Z6KernelP4NodePiPbS2_S1_S2_i').
GPGPU-Sim uArch: Shader 2 finished CTA #3 (3071,0), 0 CTAs running
GPGPU-Sim uArch: Shader 2 empty (release kernel 1 '_Z6KernelP4NodePiPbS2_S1_S2_i').
GPGPU-Sim uArch: Shader 1 finished CTA #5 (3076,0), 1 CTAs running
GPGPU-Sim uArch: Shader 4 finished CTA #1 (3081,0), 1 CTAs running
GPGPU-Sim uArch: Shader 12 finished CTA #3 (3082,0), 0 CTAs running
GPGPU-Sim uArch: Shader 12 empty (release kernel 1 '_Z6KernelP4NodePiPbS2_S1_S2_i').
GPGPU-Sim uArch: Shader 8 finished CTA #0 (3085,0), 0 CTAs running
GPGPU-Sim uArch: Shader 8 empty (release kernel 1 '_Z6KernelP4NodePiPbS2_S1_S2_i').
GPGPU-Sim uArch: Shader 11 finished CTA #5 (3092,0), 0 CTAs running
GPGPU-Sim uArch: Shader 11 empty (release kernel 1 '_Z6KernelP4NodePiPbS2_S1_S2_i').
GPGPU-Sim uArch: Shader 9 finished CTA #5 (3096,0), 0 CTAs running
GPGPU-Sim uArch: Shader 9 empty (release kernel 1 '_Z6KernelP4NodePiPbS2_S1_S2_i').
GPGPU-Sim uArch: Shader 7 finished CTA #5 (3103,0), 0 CTAs running
GPGPU-Sim uArch: Shader 7 empty (release kernel 1 '_Z6KernelP4NodePiPbS2_S1_S2_i').
GPGPU-Sim uArch: Shader 13 finished CTA #5 (3112,0), 0 CTAs running
GPGPU-Sim uArch: Shader 13 empty (release kernel 1 '_Z6KernelP4NodePiPbS2_S1_S2_i').
GPGPU-Sim uArch: Shader 14 finished CTA #2 (3120,0), 0 CTAs running
GPGPU-Sim uArch: Shader 14 empty (release kernel 1 '_Z6KernelP4NodePiPbS2_S1_S2_i').
GPGPU-Sim uArch: Shader 4 finished CTA #3 (3162,0), 0 CTAs running
GPGPU-Sim uArch: Shader 4 empty (release kernel 1 '_Z6KernelP4NodePiPbS2_S1_S2_i').
GPGPU-Sim uArch: cycles simulated: 3500  inst.: 1769496 (ipc=505.6) sim_rate=110593 (inst/sec) elapsed = 0:0:00:16 / Sun Jun  5 01:58:09 2016
GPGPU-Sim uArch: Shader 1 finished CTA #0 (6109,0), 0 CTAs running
GPGPU-Sim uArch: Shader 1 empty (release kernel 1 '_Z6KernelP4NodePiPbS2_S1_S2_i').
GPGPU-Sim uArch: GPU detected kernel '_Z6KernelP4NodePiPbS2_S1_S2_i' finished on shader 1.
kernel_name = _Z6KernelP4NodePiPbS2_S1_S2_i 
kernel_launch_uid = 1 
gpu_sim_cycle = 6110
gpu_sim_insn = 1769667
gpu_ipc =     289.6345
gpu_tot_sim_cycle = 6110
gpu_tot_sim_insn = 1769667
gpu_tot_ipc =     289.6345
gpu_tot_issued_cta = 0
gpu_stall_dramfull = 326
gpu_stall_icnt2sh    = 552
gpu_total_sim_rate=110604

========= Core cache stats =========
L1I_cache:
	L1I_total_cache_accesses = 32270
	L1I_total_cache_misses = 1441
	L1I_total_cache_miss_rate = 0.0447
	L1I_total_cache_pending_hits = 0
	L1I_total_cache_reservation_fails = 6044
L1D_cache:
	L1D_cache_core[0]: Access = 136, Miss = 34, Miss_rate = 0.250, Pending_hits = 98, Reservation_fails = 0
	L1D_cache_core[1]: Access = 204, Miss = 69, Miss_rate = 0.338, Pending_hits = 103, Reservation_fails = 0
	L1D_cache_core[2]: Access = 136, Miss = 34, Miss_rate = 0.250, Pending_hits = 96, Reservation_fails = 0
	L1D_cache_core[3]: Access = 136, Miss = 34, Miss_rate = 0.250, Pending_hits = 97, Reservation_fails = 0
	L1D_cache_core[4]: Access = 144, Miss = 36, Miss_rate = 0.250, Pending_hits = 105, Reservation_fails = 0
	L1D_cache_core[5]: Access = 136, Miss = 34, Miss_rate = 0.250, Pending_hits = 99, Reservation_fails = 0
	L1D_cache_core[6]: Access = 136, Miss = 34, Miss_rate = 0.250, Pending_hits = 96, Reservation_fails = 0
	L1D_cache_core[7]: Access = 136, Miss = 34, Miss_rate = 0.250, Pending_hits = 97, Reservation_fails = 0
	L1D_cache_core[8]: Access = 136, Miss = 34, Miss_rate = 0.250, Pending_hits = 95, Reservation_fails = 0
	L1D_cache_core[9]: Access = 136, Miss = 34, Miss_rate = 0.250, Pending_hits = 95, Reservation_fails = 0
	L1D_cache_core[10]: Access = 136, Miss = 34, Miss_rate = 0.250, Pending_hits = 96, Reservation_fails = 0
	L1D_cache_core[11]: Access = 136, Miss = 34, Miss_rate = 0.250, Pending_hits = 98, Reservation_fails = 0
	L1D_cache_core[12]: Access = 136, Miss = 34, Miss_rate = 0.250, Pending_hits = 97, Reservation_fails = 0
	L1D_cache_core[13]: Access = 136, Miss = 34, Miss_rate = 0.250, Pending_hits = 96, Reservation_fails = 0
	L1D_cache_core[14]: Access = 136, Miss = 34, Miss_rate = 0.250, Pending_hits = 97, Reservation_fails = 0
	L1D_total_cache_accesses = 2116
	L1D_total_cache_misses = 547
	L1D_total_cache_miss_rate = 0.2585
	L1D_total_cache_pending_hits = 1465
	L1D_total_cache_reservation_fails = 0
	L1D_cache_data_port_util = 0.002
	L1D_cache_fill_port_util = 0.011
L1C_cache:
	L1C_total_cache_accesses = 14336
	L1C_total_cache_misses = 480
	L1C_total_cache_miss_rate = 0.0335
	L1C_total_cache_pending_hits = 0
	L1C_total_cache_reservation_fails = 3420
L1T_cache:
	L1T_total_cache_accesses = 0
	L1T_total_cache_misses = 0
	L1T_total_cache_pending_hits = 0
	L1T_total_cache_reservation_fails = 0

Total_core_cache_stats:
	Total_core_cache_stats_breakdown[GLOBAL_ACC_R][HIT] = 102
	Total_core_cache_stats_breakdown[GLOBAL_ACC_R][HIT_RESERVED] = 1465
	Total_core_cache_stats_breakdown[GLOBAL_ACC_R][MISS] = 523
	Total_core_cache_stats_breakdown[CONST_ACC_R][HIT] = 13856
	Total_core_cache_stats_breakdown[CONST_ACC_R][MISS] = 480
	Total_core_cache_stats_breakdown[CONST_ACC_R][RESERVATION_FAIL] = 3420
	Total_core_cache_stats_breakdown[GLOBAL_ACC_W][HIT] = 2
	Total_core_cache_stats_breakdown[GLOBAL_ACC_W][MISS] = 24
	Total_core_cache_stats_breakdown[INST_ACC_R][HIT] = 30829
	Total_core_cache_stats_breakdown[INST_ACC_R][MISS] = 1441
	Total_core_cache_stats_breakdown[INST_ACC_R][RESERVATION_FAIL] = 6044
Shader 0 warp_id issue ditsribution:
warp_id:
0, 1, 2, 3, 4, 5, 6, 7, 8, 9, 10, 11, 12, 13, 14, 15, 16, 17, 18, 19, 20, 21, 22, 23, 24, 25, 26, 27, 28, 29, 30, 31, 32, 33, 34, 35, 36, 37, 38, 39, 40, 41, 42, 43, 44, 45, 46, 47, 
distro:
84, 84, 84, 84, 84, 84, 84, 84, 84, 84, 84, 84, 84, 84, 84, 84, 84, 84, 84, 84, 84, 84, 84, 84, 84, 84, 84, 84, 84, 84, 84, 84, 56, 56, 56, 56, 56, 56, 56, 56, 84, 84, 84, 84, 84, 84, 84, 84, 
gpgpu_n_tot_thrd_icount = 1841600
gpgpu_n_tot_w_icount = 57550
gpgpu_n_stall_shd_mem = 3420
gpgpu_n_mem_read_local = 0
gpgpu_n_mem_write_local = 0
gpgpu_n_mem_read_global = 523
gpgpu_n_mem_write_global = 26
gpgpu_n_mem_texture = 0
gpgpu_n_mem_const = 15
gpgpu_n_load_insn  = 65578
gpgpu_n_store_insn = 26
gpgpu_n_shmem_insn = 0
gpgpu_n_tex_insn = 0
gpgpu_n_const_mem_insn = 0
gpgpu_n_param_mem_insn = 458752
gpgpu_n_shmem_bkconflict = 0
gpgpu_n_cache_bkconflict = 0
gpgpu_n_intrawarp_mshr_merge = 0
gpgpu_n_cmem_portconflict = 3420
gpgpu_stall_shd_mem[c_mem][bk_conf] = 3420
gpgpu_stall_shd_mem[c_mem][mshr_rc] = 0
gpgpu_stall_shd_mem[c_mem][icnt_rc] = 0
gpgpu_stall_shd_mem[c_mem][data_port_stall] = 0
gpgpu_stall_shd_mem[t_mem][mshr_rc] = 0
gpgpu_stall_shd_mem[t_mem][icnt_rc] = 0
gpgpu_stall_shd_mem[t_mem][data_port_stall] = 0
gpgpu_stall_shd_mem[s_mem][bk_conf] = 0
gpgpu_stall_shd_mem[gl_mem][bk_conf] = 0
gpgpu_stall_shd_mem[gl_mem][coal_stall] = 0
gpgpu_stall_shd_mem[gl_mem][data_port_stall] = 0
gpgpu_stall_shd_mem[g_mem_ld][mshr_rc] = 0
gpgpu_stall_shd_mem[g_mem_ld][icnt_rc] = 0
gpgpu_stall_shd_mem[g_mem_ld][wb_icnt_rc] = 0
gpgpu_stall_shd_mem[g_mem_ld][wb_rsrv_fail] = 0
gpgpu_stall_shd_mem[g_mem_st][mshr_rc] = 0
gpgpu_stall_shd_mem[g_mem_st][icnt_rc] = 0
gpgpu_stall_shd_mem[g_mem_st][wb_icnt_rc] = 0
gpgpu_stall_shd_mem[g_mem_st][wb_rsrv_fail] = 0
gpgpu_stall_shd_mem[l_mem_ld][mshr_rc] = 0
gpgpu_stall_shd_mem[l_mem_ld][icnt_rc] = 0
gpgpu_stall_shd_mem[l_mem_ld][wb_icnt_rc] = 0
gpgpu_stall_shd_mem[l_mem_ld][wb_rsrv_fail] = 0
gpgpu_stall_shd_mem[l_mem_st][mshr_rc] = 0
gpgpu_stall_shd_mem[l_mem_st][icnt_rc] = 0
gpgpu_stall_shd_mem[l_mem_ld][wb_icnt_rc] = 0
gpgpu_stall_shd_mem[l_mem_ld][wb_rsrv_fail] = 0
gpu_reg_bank_conflict_stalls = 0
Warp Occupancy Distribution:
Stall:10985	W0_Idle:16835	W0_Scoreboard:13260	W1:206	W2:0	W3:0	W4:0	W5:0	W6:0	W7:0	W8:0	W9:0	W10:0	W11:0	W12:0	W13:0	W14:0	W15:0	W16:0	W17:0	W18:0	W19:0	W20:0	W21:0	W22:0	W23:0	W24:0	W25:0	W26:0	W27:0	W28:0	W29:0	W30:0	W31:0	W32:57344
traffic_breakdown_coretomem[CONST_ACC_R] = 120 {8:15,}
traffic_breakdown_coretomem[GLOBAL_ACC_R] = 4184 {8:523,}
traffic_breakdown_coretomem[GLOBAL_ACC_W] = 1040 {40:26,}
traffic_breakdown_coretomem[INST_ACC_R] = 376 {8:47,}
traffic_breakdown_memtocore[CONST_ACC_R] = 1080 {72:15,}
traffic_breakdown_memtocore[GLOBAL_ACC_R] = 71128 {136:523,}
traffic_breakdown_memtocore[GLOBAL_ACC_W] = 208 {8:26,}
traffic_breakdown_memtocore[INST_ACC_R] = 6392 {136:47,}
maxmrqlatency = 70 
maxdqlatency = 0 
maxmflatency = 347 
averagemflatency = 267 
max_icnt2mem_latency = 36 
max_icnt2sh_latency = 6109 
mrq_lat_table:409 	24 	24 	32 	22 	36 	2 	0 	0 	0 	0 	0 	0 	0 	0 	0 	0 	0 	0 	0 	0 	0 	0 	0 	0 	0 	0 	0 	0 	0 	0 	0 	
dq_lat_table:0 	0 	0 	0 	0 	0 	0 	0 	0 	0 	0 	0 	0 	0 	0 	0 	0 	0 	0 	0 	0 	0 	0 	0 	0 	0 	0 	0 	0 	0 	0 	0 	
mf_lat_table:0 	0 	0 	0 	0 	0 	0 	30 	534 	0 	0 	0 	0 	0 	0 	0 	0 	0 	0 	0 	0 	0 	0 	0 	0 	0 	0 	0 	0 	0 	0 	0 	
icnt2mem_lat_table:0 	0 	0 	600 	8 	3 	0 	0 	0 	0 	0 	0 	0 	0 	0 	0 	0 	0 	0 	0 	0 	0 	0 	0 	
icnt2sh_lat_table:0 	0 	0 	382 	117 	39 	0 	0 	0 	0 	2 	8 	16 	0 	0 	0 	0 	0 	0 	0 	0 	0 	0 	0 	
mf_lat_pw_table:0 	0 	0 	0 	0 	0 	0 	5 	6 	0 	0 	0 	0 	0 	0 	0 	0 	0 	0 	0 	0 	0 	0 	0 	0 	0 	0 	0 	0 	0 	0 	0 	
maximum concurrent accesses to same row:
dram[0]:         1         0         0         0         0         0         0         0         0         0         0         0         0         0         0         0 
dram[1]:         0         0         0         0         0         0         0         0         0         0         0         0         0         0         0         0 
dram[2]:         0         0         0         0         0         0         0         0         0         0         0         0         0         0         0         0 
dram[3]:         0         0         0         0         0         0         0         0         0         0         0         0         0         0         0         0 
dram[4]:         0         0         0         0         0         0         0         0         0         0        20        22         0         0         0         0 
dram[5]:         0         0         0         0         0         0         0         0         0         0         0         0         0         0         0         0 
maximum service time to same row:
dram[0]:      2171         0      6091         0         0         0         0         0         0         0      1216      1201      1990      2032         0         0 
dram[1]:      1487         0         0         0         0         0         0         0         0         0      1204      1172      2141      2135         0      4179 
dram[2]:      1460         0         0      3300         0      1804         0         0         0      4504      1251      1197      2001      1490         0         0 
dram[3]:         0         0         0      5293         0      4897         0         0         0         0      1207      1210      1994      2007         0         0 
dram[4]:         0      4100         0         0         0      5688         0         0         0         0      1165      2491      2026      2051      3379         0 
dram[5]:         0         0         0         0         0         0         0         0         0         0      1225      1207      2057      2019      5766         0 
average row accesses per activate:
dram[0]:  1.000000      -nan  2.000000      -nan      -nan      -nan      -nan      -nan      -nan      -nan 20.000000 22.000000 22.000000 22.000000      -nan      -nan 
dram[1]:  2.000000      -nan      -nan      -nan      -nan      -nan      -nan      -nan      -nan      -nan 20.000000 22.000000 24.000000 22.000000      -nan  3.000000 
dram[2]:  1.000000      -nan      -nan  2.000000      -nan  1.000000      -nan      -nan      -nan  2.000000 20.000000 22.000000 22.000000 22.000000      -nan      -nan 
dram[3]:      -nan      -nan      -nan  2.000000      -nan  2.000000      -nan      -nan      -nan      -nan 20.000000 22.000000 22.000000 20.000000      -nan      -nan 
dram[4]:      -nan  2.000000      -nan      -nan      -nan  2.000000      -nan      -nan      -nan      -nan  6.250000 12.000000 22.000000 20.000000  2.000000      -nan 
dram[5]:      -nan      -nan      -nan      -nan      -nan      -nan      -nan      -nan      -nan      -nan 22.000000 22.000000 22.000000 20.000000  1.000000      -nan 
average row locality = 549/45 = 12.200000
number of total memory accesses made:
dram[0]:         0         0         0         0         0         0         0         0         0         0         0         0         0         0         0         0 
dram[1]:         0         0         0         0         0         0         0         0         0         0         0         0         0         0         0         0 
dram[2]:         0         0         0         0         0         0         0         0         0         0         0         0         0         0         0         0 
dram[3]:         0         0         0         0         0         0         0         0         0         0         0         0         0         0         0         0 
dram[4]:         0         0         0         0         0         0         0         0         0         0         0         0         0         0         0         0 
dram[5]:         0         0         0         0         0         0         0         0         0         0         0         0         0         0         0         0 
total accesses: 0
min_bank_accesses = 0!
min_chip_accesses = 0!
number of total read accesses:
dram[0]:         4         0         1         0         0         0         0         0         0         0        20        22        22        22         0         0 
dram[1]:         2         0         0         0         0         0         0         0         0         0        20        22        24        22         0         3 
dram[2]:         1         0         0         1         0         1         0         0         0         1        20        22        22        21         0         0 
dram[3]:         0         0         0         1         0         1         0         0         0         0        20        22        22        20         0         0 
dram[4]:         0         1         0         0         0         1         0         0         0         0        24        23        22        20         2         0 
dram[5]:         0         0         0         0         0         0         0         0         0         0        22        22        22        20         1         0 
total reads: 539
min_bank_accesses = 0!
chip skew: 93/86 = 1.08
number of total write accesses:
dram[0]:         0         0         1         0         0         0         0         0         0         0         0         0         0         0         0         0 
dram[1]:         0         0         0         0         0         0         0         0         0         0         0         0         0         0         0         0 
dram[2]:         0         0         0         1         0         0         0         0         0         1         0         0         0         1         0         0 
dram[3]:         0         0         0         1         0         1         0         0         0         0         0         0         0         0         0         0 
dram[4]:         0         1         0         0         0         1         0         0         0         0         1         1         0         0         0         0 
dram[5]:         0         0         0         0         0         0         0         0         0         0         0         0         0         0         0         0 
total reads: 10
min_bank_accesses = 0!
min_chip_accesses = 0!
average mf latency per bank:
dram[0]:       1048    none         125    none      none      none      none      none      none      none         268       287       273       260    none      none  
dram[1]:          0    none      none      none      none      none      none      none      none      none         281       273       259       260    none         261
dram[2]:          0    none      none         126    none         268    none      none      none         126       278       283       259       248    none      none  
dram[3]:     none      none      none         126    none         126    none      none      none      none         281       301       273       261    none      none  
dram[4]:     none         126    none      none      none         126    none      none      none      none         313       277       260       260       263    none  
dram[5]:     none      none      none      none      none      none      none      none      none      none         288       294       260       261       268    none  
maximum mf latency per bank:
dram[0]:        292         0       251         0         0         0         0         0         0         0       286       321       273       277         0         0
dram[1]:          0         0         0         0         0         0         0         0         0         0       299       306       269       272         0       268
dram[2]:          0         0         0       252         0       268         0         0         0       252       320       328       271       273         0         0
dram[3]:          0         0         0       252         0       252         0         0         0         0       306       322       278       279         0         0
dram[4]:          0       252         0         0         0       252         0         0         0         0       311       330       272       267       268         0
dram[5]:          0         0         0         0         0         0         0         0         0         0       341       347       268       281       268         0

Number of Memory Banks Accessed per Memory Operation per Warp (from 0):
0	0	0	0	0	0	0	0	0	0	0	0	0	0	0	0	0	0	0	0	0	0	0	0	0	0	0	0	0	0	0	0	0	0	0	0	0	0	0	0	0	0	0	0	0	0	0	0	0	0	0	0	0	0	0	0	0	0	0	0	0	0	0	0	0	0	0	0	0	0	0	0	0	0	0	0	0	0	0	0	0	0	0	0	0	0	0	0	0	0	0	0	0	0	0	0	
Average # of Memory Banks Accessed per Memory Operation per Warp=-nan

position of mrq chosen
0	0	0	0	0	0	0	0	0	0	0	0	0	0	0	0	

average position of mrq chosen = -nan
Memory Partition 0: 
Cache L2_bank_000:
MSHR contents
MSHR: tag=0x80234400, atomic=0 1 entries : 0x7f85ac2f8080 :  mf: uid= 58196, sid01:w00, part=0, addr=0x80234440, load , size=32, unknown  status = IN_PARTITION_DRAM (6107), 

Cache L2_bank_001:
MSHR contents

In Dram Latency Queue (total = 0): 
DRAM[0]: 16 bks, busW=4 BL=8 CL=12, tRRD=2 tCCD=6, tRCD=12 tRAS=28 tRP=12 tRC=40
n_cmd=8064 n_nop=7869 n_act=9 n_pre=3 n_req=92 n_rd=182 n_write=1 bw_util=0.04539
n_activity=1072 dram_eff=0.3414
bk0: 8a 7960i bk1: 0a 8059i bk2: 2a 8041i bk3: 0a 8062i bk4: 0a 8062i bk5: 0a 8062i bk6: 0a 8065i bk7: 0a 8065i bk8: 0a 8067i bk9: 0a 8067i bk10: 40a 7949i bk11: 44a 7860i bk12: 44a 7954i bk13: 44a 7928i bk14: 0a 8062i bk15: 0a 8062i 
dram_util_bins: 0 0 0 0 0 0 0 0 0 0
dram_eff_bins: 0 0 0 0 0 0 0 0 0 0
mrqq: max=7 avg=0.0758929
Memory Partition 1: 
Cache L2_bank_002:
MSHR contents

Cache L2_bank_003:
MSHR contents

In Dram Latency Queue (total = 0): 
DRAM[1]: 16 bks, busW=4 BL=8 CL=12, tRRD=2 tCCD=6, tRCD=12 tRAS=28 tRP=12 tRC=40
n_cmd=8064 n_nop=7872 n_act=6 n_pre=0 n_req=93 n_rd=186 n_write=0 bw_util=0.04613
n_activity=1073 dram_eff=0.3467
bk0: 4a 8039i bk1: 0a 8062i bk2: 0a 8063i bk3: 0a 8063i bk4: 0a 8063i bk5: 0a 8063i bk6: 0a 8063i bk7: 0a 8064i bk8: 0a 8065i bk9: 0a 8066i bk10: 40a 7956i bk11: 44a 7875i bk12: 48a 7951i bk13: 44a 7942i bk14: 0a 8062i bk15: 6a 8039i 
dram_util_bins: 0 0 0 0 0 0 0 0 0 0
dram_eff_bins: 0 0 0 0 0 0 0 0 0 0
mrqq: max=2 avg=0.0124008
Memory Partition 2: 
Cache L2_bank_004:
MSHR contents

Cache L2_bank_005:
MSHR contents

In Dram Latency Queue (total = 0): 
DRAM[2]: 16 bks, busW=4 BL=8 CL=12, tRRD=2 tCCD=6, tRCD=12 tRAS=28 tRP=12 tRC=40
n_cmd=8064 n_nop=7875 n_act=8 n_pre=0 n_req=92 n_rd=178 n_write=3 bw_util=0.04489
n_activity=1092 dram_eff=0.3315
bk0: 2a 8045i bk1: 0a 8064i bk2: 0a 8065i bk3: 2a 8042i bk4: 0a 8064i bk5: 2a 8048i bk6: 0a 8064i bk7: 0a 8066i bk8: 0a 8066i bk9: 2a 8044i bk10: 40a 7941i bk11: 44a 7855i bk12: 44a 7958i bk13: 42a 7930i bk14: 0a 8061i bk15: 0a 8061i 
dram_util_bins: 0 0 0 0 0 0 0 0 0 0
dram_eff_bins: 0 0 0 0 0 0 0 0 0 0
mrqq: max=9 avg=0.093998
Memory Partition 3: 
Cache L2_bank_006:
MSHR contents

Cache L2_bank_007:
MSHR contents

In Dram Latency Queue (total = 0): 
DRAM[3]: 16 bks, busW=4 BL=8 CL=12, tRRD=2 tCCD=6, tRCD=12 tRAS=28 tRP=12 tRC=40
n_cmd=8064 n_nop=7884 n_act=6 n_pre=0 n_req=88 n_rd=172 n_write=2 bw_util=0.04315
n_activity=928 dram_eff=0.375
bk0: 0a 8065i bk1: 0a 8066i bk2: 0a 8066i bk3: 2a 8043i bk4: 0a 8064i bk5: 2a 8042i bk6: 0a 8063i bk7: 0a 8063i bk8: 0a 8064i bk9: 0a 8064i bk10: 40a 7951i bk11: 44a 7861i bk12: 44a 7950i bk13: 40a 7943i bk14: 0a 8063i bk15: 0a 8063i 
dram_util_bins: 0 0 0 0 0 0 0 0 0 0
dram_eff_bins: 0 0 0 0 0 0 0 0 0 0
mrqq: max=7 avg=0.0823413
Memory Partition 4: 
Cache L2_bank_008:
MSHR contents

Cache L2_bank_009:
MSHR contents

In Dram Latency Queue (total = 0): 
DRAM[4]: 16 bks, busW=4 BL=8 CL=12, tRRD=2 tCCD=6, tRCD=12 tRAS=28 tRP=12 tRC=40
n_cmd=8064 n_nop=7859 n_act=11 n_pre=4 n_req=97 n_rd=186 n_write=4 bw_util=0.04712
n_activity=1228 dram_eff=0.3094
bk0: 0a 8062i bk1: 2a 8042i bk2: 0a 8063i bk3: 0a 8063i bk4: 0a 8063i bk5: 2a 8042i bk6: 0a 8066i bk7: 0a 8068i bk8: 0a 8069i bk9: 0a 8069i bk10: 48a 7855i bk11: 46a 7830i bk12: 44a 7946i bk13: 40a 7954i bk14: 4a 8038i bk15: 0a 8059i 
dram_util_bins: 0 0 0 0 0 0 0 0 0 0
dram_eff_bins: 0 0 0 0 0 0 0 0 0 0
mrqq: max=5 avg=0.0656002
Memory Partition 5: 
Cache L2_bank_010:
MSHR contents

Cache L2_bank_011:
MSHR contents

In Dram Latency Queue (total = 0): 
DRAM[5]: 16 bks, busW=4 BL=8 CL=12, tRRD=2 tCCD=6, tRCD=12 tRAS=28 tRP=12 tRC=40
n_cmd=8064 n_nop=7885 n_act=5 n_pre=0 n_req=87 n_rd=174 n_write=0 bw_util=0.04315
n_activity=921 dram_eff=0.3779
bk0: 0a 8060i bk1: 0a 8062i bk2: 0a 8063i bk3: 0a 8063i bk4: 0a 8063i bk5: 0a 8063i bk6: 0a 8064i bk7: 0a 8065i bk8: 0a 8067i bk9: 0a 8068i bk10: 44a 7934i bk11: 44a 7852i bk12: 44a 7955i bk13: 40a 7933i bk14: 2a 8045i bk15: 0a 8060i 
dram_util_bins: 0 0 0 0 0 0 0 0 0 0
dram_eff_bins: 0 0 0 0 0 0 0 0 0 0
mrqq: max=11 avg=0.111359

========= L2 cache stats =========
L2_cache_bank[0]: Access = 91, Miss = 47, Miss_rate = 0.516, Pending_hits = 9, Reservation_fails = 342
L2_cache_bank[1]: Access = 44, Miss = 44, Miss_rate = 1.000, Pending_hits = 0, Reservation_fails = 0
L2_cache_bank[2]: Access = 47, Miss = 46, Miss_rate = 0.979, Pending_hits = 0, Reservation_fails = 0
L2_cache_bank[3]: Access = 47, Miss = 47, Miss_rate = 1.000, Pending_hits = 0, Reservation_fails = 0
L2_cache_bank[4]: Access = 57, Miss = 43, Miss_rate = 0.754, Pending_hits = 3, Reservation_fails = 83
L2_cache_bank[5]: Access = 46, Miss = 46, Miss_rate = 1.000, Pending_hits = 0, Reservation_fails = 0
L2_cache_bank[6]: Access = 45, Miss = 42, Miss_rate = 0.933, Pending_hits = 0, Reservation_fails = 0
L2_cache_bank[7]: Access = 46, Miss = 44, Miss_rate = 0.957, Pending_hits = 0, Reservation_fails = 0
L2_cache_bank[8]: Access = 56, Miss = 48, Miss_rate = 0.857, Pending_hits = 0, Reservation_fails = 0
L2_cache_bank[9]: Access = 45, Miss = 45, Miss_rate = 1.000, Pending_hits = 0, Reservation_fails = 0
L2_cache_bank[10]: Access = 45, Miss = 45, Miss_rate = 1.000, Pending_hits = 0, Reservation_fails = 0
L2_cache_bank[11]: Access = 42, Miss = 42, Miss_rate = 1.000, Pending_hits = 0, Reservation_fails = 0
L2_total_cache_accesses = 611
L2_total_cache_misses = 539
L2_total_cache_miss_rate = 0.8822
L2_total_cache_pending_hits = 12
L2_total_cache_reservation_fails = 425
L2_total_cache_breakdown:
	L2_cache_stats_breakdown[GLOBAL_ACC_R][MISS] = 523
	L2_cache_stats_breakdown[CONST_ACC_R][HIT] = 11
	L2_cache_stats_breakdown[CONST_ACC_R][HIT_RESERVED] = 3
	L2_cache_stats_breakdown[CONST_ACC_R][MISS] = 1
	L2_cache_stats_breakdown[CONST_ACC_R][RESERVATION_FAIL] = 109
	L2_cache_stats_breakdown[GLOBAL_ACC_W][HIT] = 16
	L2_cache_stats_breakdown[GLOBAL_ACC_W][MISS] = 10
	L2_cache_stats_breakdown[INST_ACC_R][HIT] = 33
	L2_cache_stats_breakdown[INST_ACC_R][HIT_RESERVED] = 9
	L2_cache_stats_breakdown[INST_ACC_R][MISS] = 5
	L2_cache_stats_breakdown[INST_ACC_R][RESERVATION_FAIL] = 316
L2_cache_data_port_util = 0.002
L2_cache_fill_port_util = 0.029

icnt_total_pkts_mem_to_simt=2921
icnt_total_pkts_simt_to_mem=637
LD_mem_lat_dist  0 0 0 0 0 0 0 0 0 0 0 0 0 0 0 0 0 0 0 0 0 0 0 0 0 0 0
ST_mem_lat_dist  0 0 0 0 0 0 0 0 0 0 0 0 0 0 0 0 0 0 0 0 0 0 0 0 0 0 0
----------------------------Interconnect-DETAILS--------------------------------
Class 0:
Packet latency average = 10.4223
	minimum = 6
	maximum = 44
Network latency average = 9.62193
	minimum = 6
	maximum = 34
Slowest packet = 14
Flit latency average = 8.27375
	minimum = 6
	maximum = 34
Slowest flit = 14
Fragmentation average = 0
	minimum = 0
	maximum = 0
Injected packet rate average = 0.00740741
	minimum = 0.00621931 (at node 0)
	maximum = 0.0148936 (at node 15)
Accepted packet rate average = 0.00740741
	minimum = 0.00621931 (at node 0)
	maximum = 0.0148936 (at node 15)
Injected flit rate average = 0.0215676
	minimum = 0.00621931 (at node 0)
	maximum = 0.0675941 (at node 15)
[...]
traffic_breakdown_coretomem[GLOBAL_ACC_W] = 16661024 {40:415680,72:92,136:200,}
traffic_breakdown_coretomem[INST_ACC_R] = 600 {8:75,}
traffic_breakdown_memtocore[CONST_ACC_R] = 1080 {72:15,}
traffic_breakdown_memtocore[GLOBAL_ACC_R] = 84052352 {136:618032,}
traffic_breakdown_memtocore[GLOBAL_ACC_W] = 3327776 {8:415972,}
traffic_breakdown_memtocore[INST_ACC_R] = 10200 {136:75,}
maxmrqlatency = 552 
maxdqlatency = 0 
maxmflatency = 1187 
averagemflatency = 393 
max_icnt2mem_latency = 938 
max_icnt2sh_latency = 756557 
mrq_lat_table:41762 	3728 	1151 	3509 	4767 	1036 	660 	308 	15 	1 	0 	0 	0 	0 	0 	0 	0 	0 	0 	0 	0 	0 	0 	0 	0 	0 	0 	0 	0 	0 	0 	0 	
dq_lat_table:0 	0 	0 	0 	0 	0 	0 	0 	0 	0 	0 	0 	0 	0 	0 	0 	0 	0 	0 	0 	0 	0 	0 	0 	0 	0 	0 	0 	0 	0 	0 	0 	
mf_lat_table:0 	0 	0 	0 	0 	0 	0 	134819 	717342 	181816 	42 	0 	0 	0 	0 	0 	0 	0 	0 	0 	0 	0 	0 	0 	0 	0 	0 	0 	0 	0 	0 	0 	
icnt2mem_lat_table:0 	0 	0 	89664 	31888 	76171 	325788 	250743 	256429 	3411 	0 	0 	0 	0 	0 	0 	0 	0 	0 	0 	0 	0 	0 	0 	
icnt2sh_lat_table:0 	0 	0 	36756 	291529 	271920 	17777 	65 	0 	0 	2 	8 	31 	595 	8183 	18811 	44628 	102324 	175501 	65889 	0 	0 	0 	0 	
mf_lat_pw_table:0 	0 	0 	0 	0 	0 	0 	106 	1410 	2 	0 	0 	0 	0 	0 	0 	0 	0 	0 	0 	0 	0 	0 	0 	0 	0 	0 	0 	0 	0 	0 	0 	
maximum concurrent accesses to same row:
dram[0]:        38        35        23        20        27        30        32        32        35        50        20        28        37        33        36        36 
dram[1]:        48        31        24        24        26        36        26        21        23        23        20        23        35        33        43        32 
dram[2]:        28        27        34        32        25        32        33        32        30        39        22        26        32        42        48        47 
dram[3]:        24        34        31        26        37        29        30        27        28        22        22        22        27        41        34        37 
dram[4]:        34        32        33        32        34        36        32        32        32        32        28        23        34        31        38        37 
dram[5]:        27        31        30        30        26        25        29        32        27        29        26        31        33        31        32        32 
maximum service time to same row:
dram[0]:     52989     78503     60931     47653     63318     57550     58538     43790     60834     72344     64467     82963     88913     91610     84545     93697 
dram[1]:     65015     73138     63155     60007    109971    136195     50193     62222     63306    104406     85925     86087    122204    113046     79786     93032 
dram[2]:     57290     72079     84336     52124     69319     62027     59343     60636     60791     70719     62371     99611     59925     58175    144889    147451 
dram[3]:     51432    112169    118531    102207     55027     61785     64701     46043     43118     58658     55556     67272     74188     88669     63407     77023 
dram[4]:     55907     85775     65909     98602     82107     58678     48232     73845     76252     53753     41981     75544    106066     77277     89984     85370 
dram[5]:     54375     64090    109452     95347     80145     61232     83540     54538     57913     73772     55797     75027    114667    114812    141512    128263 
average row accesses per activate:
dram[0]:  3.263158  3.298077  3.438202  3.590909  4.006849  3.916667  3.497488  3.724868  4.760274  4.011173  3.318436  2.920398  5.011628  4.744444  9.395349  7.641510 
dram[1]:  3.529126  3.820809  3.525424  3.650887  3.514620  3.473373  3.689119  3.097872  3.310044  3.195555  3.429319  3.125000  4.271028  4.346535  7.258621  7.745454 
dram[2]:  3.301020  3.110092  4.496296  3.712500  3.568627  4.025974  4.322785  4.833333  3.438679  3.782383  2.946667  2.763713  4.895833  4.096491  9.581395 10.125000 
dram[3]:  3.422680  3.082927  4.129251  3.711765  4.064286  4.340425  4.360759  4.176471  3.252101  3.454976  2.962617  3.132701  4.000000  4.587629  6.257576  6.119403 
dram[4]:  4.263514  3.595238  3.601191  3.696774  4.188406  4.424242  3.548387  3.847561  4.419162  4.160920  3.514451  3.847682  3.822034  4.442105 11.222222  8.951220 
dram[5]:  3.646067  3.450777  3.130208  3.142857  3.668675  3.596491  4.066265  3.895604  3.325581  3.089069  3.293478  3.082474  4.455446  4.556701  7.627451  8.488889 
average row locality = 56937/14858 = 3.832077
number of total memory accesses made:
dram[0]:         0         0         0         0         0         0         0         0         0         0         0         0         0         0         0         0 
dram[1]:         0         0         0         0         0         0         0         0         0         0         0         0         0         0         0         0 
dram[2]:         0         0         0         0         0         0         0         0         0         0         0         0         0         0         0         0 
dram[3]:         0         0         0         0         0         0         0         0         0         0         0         0         0         0         0         0 
dram[4]:         0         0         0         0         0         0         0         0         0         0         0         0         0         0         0         0 
dram[5]:         0         0         0         0         0         0         0         0         0         0         0         0         0         0         0         0 
total accesses: 0
min_bank_accesses = 0!
min_chip_accesses = 0!
number of total read accesses:
dram[0]:       457       492       453       465       459       447       541       540       528       527       489       486       409       404       404       404 
dram[1]:       507       480       454       446       469       461       555       569       561       538       507       471       431       414       420       424 
dram[2]:       476       492       452       445       431       480       529       533       543       546       535       527       446       436       411       403 
dram[3]:       486       453       455       465       440       472       541       548       564       544       514       518       426       423       411       408 
dram[4]:       456       452       449       428       459       452       516       490       553       543       491       471       415       397       403       367 
dram[5]:       469       477       459       445       470       471       527       532       544       561       493       493       427       415       388       380 
total reads: 45458
bank skew: 569/367 = 1.55
chip skew: 7707/7342 = 1.05
number of total write accesses:
dram[0]:       163       194       159       167       126       117       155       164       167       191       105       101        22        23         0         1 
dram[1]:       220       181       170       171       132       126       157       159       197       181       148       104        26        25         1         2 
dram[2]:       171       186       155       149       115       140       154       163       186       184       128       128        24        31         1         2 
dram[3]:       178       179       152       166       129       140       148       162       210       185       120       143        38        22         2         2 
dram[4]:       175       152       156       145       119       132       144       141       185       181       117       110        36        25         1         0 
dram[5]:       180       189       142       149       139       144       148       177       171       202       113       105        23        27         1         2 
total reads: 11479
min_bank_accesses = 0!
chip skew: 2000/1819 = 1.10
average mf latency per bank:
dram[0]:       3363      3082      3705      3650      4005      4150      3492      3327      3162      3072      7369      7571     14883     15092     22248     22130
dram[1]:       2925      3326      3573      3988      4154      4348      3492      3500      3012      3165      6502      7893     14028     15451     21910     22267
dram[2]:       3253      3162      3658      3955      4316      4007      3500      3548      3045      3178      6594      7090     13734     14541     21364     22627
dram[3]:       3269      3324      3717      3729      4131      3995      3555      3580      2880      3074      6895      6810     13737     14984     21926     22645
dram[4]:       4043      3431      4679      3973      5421      4251      4764      3822      3981      3035     40288      8080     18316     15995     28711     24857
dram[5]:       3256      3307      3808      4065      3812      3975      3374      3445      2967      2957      7396      7894     14029     15319     22439     23971
maximum mf latency per bank:
dram[0]:       1026       921       894       814       869       900       902       971       872       890       993       844       957      1052       980      1056
dram[1]:        986      1187       850       941       851      1015      1004       955      1056       974       944       903      1020      1135      1023      1057
dram[2]:        855       910       857      1042       972       870      1010       992       957       997       961       912       878       884       908       949
dram[3]:        934       967       830       971       854       972       988      1054       949       963       913       972       898       940       891       964
dram[4]:       1017       904      1007       874      1023       873      1032       989      1075       921      1161       871      1007      1029      1133      1047
dram[5]:        865       922       930       876       934       921       988      1047       898       959       880       925       950      1068      1052       880

Number of Memory Banks Accessed per Memory Operation per Warp (from 0):
0	0	0	0	0	0	0	0	0	0	0	0	0	0	0	0	0	0	0	0	0	0	0	0	0	0	0	0	0	0	0	0	0	0	0	0	0	0	0	0	0	0	0	0	0	0	0	0	0	0	0	0	0	0	0	0	0	0	0	0	0	0	0	0	0	0	0	0	0	0	0	0	0	0	0	0	0	0	0	0	0	0	0	0	0	0	0	0	0	0	0	0	0	0	0	0	
Average # of Memory Banks Accessed per Memory Operation per Warp=-nan

position of mrq chosen
0	0	0	0	0	0	0	0	0	0	0	0	0	0	0	0	

average position of mrq chosen = -nan
Memory Partition 0: 
Cache L2_bank_000:
MSHR contents

Cache L2_bank_001:
MSHR contents

In Dram Latency Queue (total = 0): 
DRAM[0]: 16 bks, busW=4 BL=8 CL=12, tRRD=2 tCCD=6, tRCD=12 tRAS=28 tRP=12 tRC=40
n_cmd=1000626 n_nop=978086 n_act=2407 n_pre=2391 n_req=9360 n_rd=15010 n_write=2732 bw_util=0.03546
n_activity=152198 dram_eff=0.2331
bk0: 914a 991354i bk1: 984a 990747i bk2: 906a 990971i bk3: 930a 992085i bk4: 918a 992682i bk5: 894a 992552i bk6: 1082a 990619i bk7: 1080a 989548i bk8: 1056a 991545i bk9: 1054a 990186i bk10: 978a 992142i bk11: 972a 990965i bk12: 818a 994746i bk13: 808a 994749i bk14: 808a 996426i bk15: 808a 996207i 
dram_util_bins: 0 0 0 0 0 0 0 0 0 0
dram_eff_bins: 0 0 0 0 0 0 0 0 0 0
mrqq: max=16 avg=0.0752169
Memory Partition 1: 
Cache L2_bank_002:
MSHR contents

Cache L2_bank_003:
MSHR contents

In Dram Latency Queue (total = 0): 
DRAM[1]: 16 bks, busW=4 BL=8 CL=12, tRRD=2 tCCD=6, tRCD=12 tRAS=28 tRP=12 tRC=40
n_cmd=1000626 n_nop=977007 n_act=2643 n_pre=2627 n_req=9707 n_rd=15414 n_write=2935 bw_util=0.03668
n_activity=162057 dram_eff=0.2265
bk0: 1014a 990739i bk1: 960a 991665i bk2: 908a 991571i bk3: 892a 991907i bk4: 938a 991903i bk5: 922a 991902i bk6: 1110a 990284i bk7: 1138a 989016i bk8: 1122a 988962i bk9: 1076a 989250i bk10: 1014a 991215i bk11: 942a 991634i bk12: 862a 994646i bk13: 828a 994905i bk14: 840a 996400i bk15: 848a 996725i 
dram_util_bins: 0 0 0 0 0 0 0 0 0 0
dram_eff_bins: 0 0 0 0 0 0 0 0 0 0
mrqq: max=16 avg=0.0536634
Memory Partition 2: 
Cache L2_bank_004:
MSHR contents

Cache L2_bank_005:
MSHR contents

In Dram Latency Queue (total = 0): 
DRAM[2]: 16 bks, busW=4 BL=8 CL=12, tRRD=2 tCCD=6, tRCD=12 tRAS=28 tRP=12 tRC=40
n_cmd=1000626 n_nop=977502 n_act=2478 n_pre=2462 n_req=9602 n_rd=15370 n_write=2814 bw_util=0.03635
n_activity=154508 dram_eff=0.2354
bk0: 952a 991438i bk1: 984a 990116i bk2: 904a 992336i bk3: 890a 991667i bk4: 862a 993259i bk5: 960a 991821i bk6: 1058a 990081i bk7: 1066a 990914i bk8: 1086a 989635i bk9: 1092a 989767i bk10: 1070a 990373i bk11: 1054a 989640i bk12: 892a 994562i bk13: 872a 994097i bk14: 822a 996614i bk15: 806a 996835i 
dram_util_bins: 0 0 0 0 0 0 0 0 0 0
dram_eff_bins: 0 0 0 0 0 0 0 0 0 0
mrqq: max=16 avg=0.0758445
Memory Partition 3: 
Cache L2_bank_006:
MSHR contents

Cache L2_bank_007:
MSHR contents

In Dram Latency Queue (total = 0): 
DRAM[3]: 16 bks, busW=4 BL=8 CL=12, tRRD=2 tCCD=6, tRCD=12 tRAS=28 tRP=12 tRC=40
n_cmd=1000626 n_nop=977316 n_act=2545 n_pre=2529 n_req=9644 n_rd=15336 n_write=2900 bw_util=0.03645
n_activity=158084 dram_eff=0.2307
bk0: 972a 991512i bk1: 906a 990597i bk2: 910a 992476i bk3: 930a 991622i bk4: 880a 992880i bk5: 944a 992426i bk6: 1082a 990761i bk7: 1096a 990553i bk8: 1128a 988937i bk9: 1088a 989911i bk10: 1028a 990807i bk11: 1036a 990039i bk12: 852a 993737i bk13: 846a 994800i bk14: 822a 996347i bk15: 816a 996406i 
dram_util_bins: 0 0 0 0 0 0 0 0 0 0
dram_eff_bins: 0 0 0 0 0 0 0 0 0 0
mrqq: max=16 avg=0.0590211
Memory Partition 4: 
Cache L2_bank_008:
MSHR contents

Cache L2_bank_009:
MSHR contents

In Dram Latency Queue (total = 0): 
DRAM[4]: 16 bks, busW=4 BL=8 CL=12, tRRD=2 tCCD=6, tRCD=12 tRAS=28 tRP=12 tRC=40
n_cmd=1000626 n_nop=978835 n_act=2214 n_pre=2198 n_req=9161 n_rd=14684 n_write=2695 bw_util=0.03474
n_activity=148233 dram_eff=0.2345
bk0: 912a 991958i bk1: 904a 991989i bk2: 898a 992316i bk3: 856a 992331i bk4: 918a 993209i bk5: 904a 992431i bk6: 1032a 990034i bk7: 980a 990474i bk8: 1106a 989120i bk9: 1086a 989977i bk10: 982a 991670i bk11: 942a 992019i bk12: 830a 993732i bk13: 794a 994273i bk14: 806a 996830i bk15: 734a 996627i 
dram_util_bins: 0 0 0 0 0 0 0 0 0 0
dram_eff_bins: 0 0 0 0 0 0 0 0 0 0
mrqq: max=16 avg=0.0848349
Memory Partition 5: 
Cache L2_bank_010:
MSHR contents

Cache L2_bank_011:
MSHR contents

In Dram Latency Queue (total = 0): 
DRAM[5]: 16 bks, busW=4 BL=8 CL=12, tRRD=2 tCCD=6, tRCD=12 tRAS=28 tRP=12 tRC=40
n_cmd=1000626 n_nop=977581 n_act=2571 n_pre=2555 n_req=9463 n_rd=15102 n_write=2817 bw_util=0.03582
n_activity=156652 dram_eff=0.2288
bk0: 938a 991870i bk1: 954a 990300i bk2: 918a 991026i bk3: 890a 990809i bk4: 940a 991956i bk5: 942a 991314i bk6: 1054a 990412i bk7: 1064a 989709i bk8: 1088a 988512i bk9: 1122a 988210i bk10: 986a 991366i bk11: 986a 991306i bk12: 854a 994831i bk13: 830a 994760i bk14: 776a 996842i bk15: 760a 997204i 
dram_util_bins: 0 0 0 0 0 0 0 0 0 0
dram_eff_bins: 0 0 0 0 0 0 0 0 0 0
mrqq: max=16 avg=0.0621161

========= L2 cache stats =========
L2_cache_bank[0]: Access = 82363, Miss = 3740, Miss_rate = 0.045, Pending_hits = 18, Reservation_fails = 596
L2_cache_bank[1]: Access = 82692, Miss = 3765, Miss_rate = 0.046, Pending_hits = 9, Reservation_fails = 429
L2_cache_bank[2]: Access = 82165, Miss = 3904, Miss_rate = 0.048, Pending_hits = 14, Reservation_fails = 2
L2_cache_bank[3]: Access = 83429, Miss = 3803, Miss_rate = 0.046, Pending_hits = 12, Reservation_fails = 1
L2_cache_bank[4]: Access = 81948, Miss = 3823, Miss_rate = 0.047, Pending_hits = 7, Reservation_fails = 285
L2_cache_bank[5]: Access = 83570, Miss = 3862, Miss_rate = 0.046, Pending_hits = 11, Reservation_fails = 236
L2_cache_bank[6]: Access = 82623, Miss = 3837, Miss_rate = 0.046, Pending_hits = 14, Reservation_fails = 1
L2_cache_bank[7]: Access = 83597, Miss = 3831, Miss_rate = 0.046, Pending_hits = 11, Reservation_fails = 0
L2_cache_bank[8]: Access = 120621, Miss = 3742, Miss_rate = 0.031, Pending_hits = 9, Reservation_fails = 686
L2_cache_bank[9]: Access = 83635, Miss = 3600, Miss_rate = 0.043, Pending_hits = 9, Reservation_fails = 358
L2_cache_bank[10]: Access = 83305, Miss = 3777, Miss_rate = 0.045, Pending_hits = 13, Reservation_fails = 0
L2_cache_bank[11]: Access = 84146, Miss = 3774, Miss_rate = 0.045, Pending_hits = 7, Reservation_fails = 57
L2_total_cache_accesses = 1034094
L2_total_cache_misses = 45458
L2_total_cache_miss_rate = 0.0440
L2_total_cache_pending_hits = 134
L2_total_cache_reservation_fails = 2651
L2_total_cache_breakdown:
	L2_cache_stats_breakdown[GLOBAL_ACC_R][HIT] = 578525
	L2_cache_stats_breakdown[GLOBAL_ACC_R][HIT_RESERVED] = 27
	L2_cache_stats_breakdown[GLOBAL_ACC_R][MISS] = 39480
	L2_cache_stats_breakdown[GLOBAL_ACC_R][RESERVATION_FAIL] = 2216
	L2_cache_stats_breakdown[CONST_ACC_R][HIT] = 11
	L2_cache_stats_breakdown[CONST_ACC_R][HIT_RESERVED] = 3
	L2_cache_stats_breakdown[CONST_ACC_R][MISS] = 1
	L2_cache_stats_breakdown[CONST_ACC_R][RESERVATION_FAIL] = 109
	L2_cache_stats_breakdown[GLOBAL_ACC_W][HIT] = 409905
	L2_cache_stats_breakdown[GLOBAL_ACC_W][HIT_RESERVED] = 95
	L2_cache_stats_breakdown[GLOBAL_ACC_W][MISS] = 5972
	L2_cache_stats_breakdown[GLOBAL_ACC_W][RESERVATION_FAIL] = 10
	L2_cache_stats_breakdown[INST_ACC_R][HIT] = 61
	L2_cache_stats_breakdown[INST_ACC_R][HIT_RESERVED] = 9
	L2_cache_stats_breakdown[INST_ACC_R][MISS] = 5
	L2_cache_stats_breakdown[INST_ACC_R][RESERVATION_FAIL] = 316
L2_cache_data_port_util = 0.302
L2_cache_fill_port_util = 0.020

icnt_total_pkts_mem_to_simt=3506552
icnt_total_pkts_simt_to_mem=1450758
LD_mem_lat_dist  0 0 0 0 0 0 0 0 0 0 0 0 0 0 0 0 0 0 0 0 0 0 0 0 0 0 0
ST_mem_lat_dist  0 0 0 0 0 0 0 0 0 0 0 0 0 0 0 0 0 0 0 0 0 0 0 0 0 0 0
----------------------------Interconnect-DETAILS--------------------------------
Class 0:
Packet latency average = 8.28992
	minimum = 6
	maximum = 20
Network latency average = 8.18739
	minimum = 6
	maximum = 18
Slowest packet = 2067152
Flit latency average = 6.36021
	minimum = 6
	maximum = 14
Slowest flit = 4956077
Fragmentation average = 0
	minimum = 0
	maximum = 0
Injected packet rate average = 0.0149454
	minimum = 0.0115293 (at node 0)
	maximum = 0.0183113 (at node 22)
Accepted packet rate average = 0.0149454
	minimum = 0.0115293 (at node 0)
	maximum = 0.0183113 (at node 22)
Injected flit rate average = 0.043932
	minimum = 0.0115293 (at node 0)
	maximum = 0.0871482 (at node 23)
Accepted flit rate average= 0.043932
	minimum = 0.0162767 (at node 20)
	maximum = 0.0810444 (at node 13)
Injected packet length average = 2.9395
Accepted packet length average = 2.9395
Total in-flight flits = 0 (0 measured)
====== Overall Traffic Statistics ======
====== Traffic class 0 ======
Packet latency average = 33.6303 (8 samples)
	minimum = 6 (8 samples)
	maximum = 330.75 (8 samples)
Network latency average = 21.8502 (8 samples)
	minimum = 6 (8 samples)
	maximum = 247.625 (8 samples)
Flit latency average = 16.347 (8 samples)
	minimum = 6 (8 samples)
	maximum = 246 (8 samples)
Fragmentation average = 0.0320346 (8 samples)
	minimum = 0 (8 samples)
	maximum = 163.75 (8 samples)
Injected packet rate average = 0.0522884 (8 samples)
	minimum = 0.0407378 (8 samples)
	maximum = 0.0955801 (8 samples)
Accepted packet rate average = 0.0522884 (8 samples)
	minimum = 0.0407378 (8 samples)
	maximum = 0.0955801 (8 samples)
Injected flit rate average = 0.128556 (8 samples)
	minimum = 0.0547035 (8 samples)
	maximum = 0.251153 (8 samples)
Accepted flit rate average = 0.128556 (8 samples)
	minimum = 0.0701125 (8 samples)
	maximum = 0.219151 (8 samples)
Injected packet size average = 2.45858 (8 samples)
Accepted packet size average = 2.45858 (8 samples)
Hops average = 1 (8 samples)
----------------------------END-of-Interconnect-DETAILS-------------------------


gpgpu_simulation_time = 0 days, 0 hrs, 37 min, 12 sec (2232 sec)
gpgpu_simulation_rate = 10165 (inst/sec)
gpgpu_simulation_rate = 339 (cycle/sec)
GPGPU-Sim: synchronize waiting for inactive GPU simulation
GPGPU-Sim API: Stream Manager State
GPGPU-Sim: detected inactive GPU simulation thread
Kernel Executed 8 times
Processing time: 2231666.750000 (ms)
Result stored in result.txt
