

        *** GPGPU-Sim Simulator Version 3.2.2  [build 17315] ***


GPGPU-Sim PTX: simulation mode 0 (can change with PTX_SIM_MODE_FUNC environment variable:
               1=functional simulation only, 0=detailed performance simulator)
GPGPU-Sim: Configuration options:

-network_mode                           1 # Interconnection network mode
-inter_config_file   config_fermi_islip.icnt # Interconnection network config file
-gpgpu_ptx_use_cuobjdump                    1 # Use cuobjdump to extract ptx and sass from binaries
-gpgpu_experimental_lib_support                    0 # Try to extract code from cuda libraries [Broken because of unknown cudaGetExportTable]
-gpgpu_ptx_convert_to_ptxplus                    0 # Convert SASS (native ISA) to ptxplus and run ptxplus
-gpgpu_ptx_force_max_capability                   20 # Force maximum compute capability
-gpgpu_ptx_inst_debug_to_file                    0 # Dump executed instructions' debug information to file
-gpgpu_ptx_inst_debug_file       inst_debug.txt # Executed instructions' debug output file
-gpgpu_ptx_inst_debug_thread_uid                    1 # Thread UID for executed instructions' debug output
-gpgpu_simd_model                       1 # 1 = post-dominator
-gpgpu_shader_core_pipeline              1536:32 # shader core pipeline config, i.e., {<nthread>:<warpsize>}
-gpgpu_tex_cache:l1  4:128:24,L:R:m:N,F:128:4,128:2 # per-shader L1 texture cache  (READ-ONLY) config  {<nsets>:<bsize>:<assoc>,<rep>:<wr>:<alloc>:<wr_alloc>,<mshr>:<N>:<merge>,<mq>:<rf>}
-gpgpu_const_cache:l1 64:64:2,L:R:f:N,A:2:32,4 # per-shader L1 constant memory cache  (READ-ONLY) config  {<nsets>:<bsize>:<assoc>,<rep>:<wr>:<alloc>:<wr_alloc>,<mshr>:<N>:<merge>,<mq>} 
-gpgpu_cache:il1     4:128:4,L:R:f:N,A:2:32,4 # shader L1 instruction cache config  {<nsets>:<bsize>:<assoc>,<rep>:<wr>:<alloc>:<wr_alloc>,<mshr>:<N>:<merge>,<mq>} 
-gpgpu_cache:dl1     32:128:4,L:L:m:N,A:32:8,8 # per-shader L1 data cache config  {<nsets>:<bsize>:<assoc>,<rep>:<wr>:<alloc>:<wr_alloc>,<mshr>:<N>:<merge>,<mq> | none}
-gpgpu_cache:dl1PrefL1                 none # per-shader L1 data cache config  {<nsets>:<bsize>:<assoc>,<rep>:<wr>:<alloc>:<wr_alloc>,<mshr>:<N>:<merge>,<mq> | none}
-gpgpu_cache:dl1PreShared                 none # per-shader L1 data cache config  {<nsets>:<bsize>:<assoc>,<rep>:<wr>:<alloc>:<wr_alloc>,<mshr>:<N>:<merge>,<mq> | none}
-gmem_skip_L1D                          0 # global memory access skip L1D cache (implements -Xptxas -dlcm=cg, default=no skip)
-gpgpu_perfect_mem                      0 # enable perfect memory mode (no cache miss)
-n_regfile_gating_group                    4 # group of lanes that should be read/written together)
-gpgpu_clock_gated_reg_file                    0 # enable clock gated reg file for power calculations
-gpgpu_clock_gated_lanes                    0 # enable clock gated lanes for power calculations
-gpgpu_shader_registers                32768 # Number of registers per shader core. Limits number of concurrent CTAs. (default 8192)
-gpgpu_shader_cta                       8 # Maximum number of concurrent CTAs in shader (default 8)
-gpgpu_n_clusters                      15 # number of processing clusters
-gpgpu_n_cores_per_cluster                    1 # number of simd cores per cluster
-gpgpu_n_cluster_ejection_buffer_size                    8 # number of packets in ejection buffer
-gpgpu_n_ldst_response_buffer_size                    2 # number of response packets in ld/st unit ejection buffer
-gpgpu_shmem_size                   16384 # Size of shared memory per shader core (default 16kB)
-gpgpu_shmem_size                   49152 # Size of shared memory per shader core (default 16kB)
-gpgpu_shmem_size_PrefL1                16384 # Size of shared memory per shader core (default 16kB)
-gpgpu_shmem_size_PrefShared                16384 # Size of shared memory per shader core (default 16kB)
-gpgpu_shmem_num_banks                   32 # Number of banks in the shared memory in each shader core (default 16)
-gpgpu_shmem_limited_broadcast                    0 # Limit shared memory to do one broadcast per cycle (default on)
-gpgpu_shmem_warp_parts                    1 # Number of portions a warp is divided into for shared memory bank conflict check 
-gpgpu_warpdistro_shader                   -1 # Specify which shader core to collect the warp size distribution from
-gpgpu_warp_issue_shader                    0 # Specify which shader core to collect the warp issue distribution from
-gpgpu_local_mem_map                    1 # Mapping from local memory space address to simulated GPU physical address space (default = enabled)
-gpgpu_num_reg_banks                   16 # Number of register banks (default = 8)
-gpgpu_reg_bank_use_warp_id                    0 # Use warp ID in mapping registers to banks (default = off)
-gpgpu_operand_collector_num_units_sp                    6 # number of collector units (default = 4)
-gpgpu_operand_collector_num_units_sfu                    8 # number of collector units (default = 4)
-gpgpu_operand_collector_num_units_mem                    2 # number of collector units (default = 2)
-gpgpu_operand_collector_num_units_gen                    0 # number of collector units (default = 0)
-gpgpu_operand_collector_num_in_ports_sp                    2 # number of collector unit in ports (default = 1)
-gpgpu_operand_collector_num_in_ports_sfu                    1 # number of collector unit in ports (default = 1)
-gpgpu_operand_collector_num_in_ports_mem                    1 # number of collector unit in ports (default = 1)
-gpgpu_operand_collector_num_in_ports_gen                    0 # number of collector unit in ports (default = 0)
-gpgpu_operand_collector_num_out_ports_sp                    2 # number of collector unit in ports (default = 1)
-gpgpu_operand_collector_num_out_ports_sfu                    1 # number of collector unit in ports (default = 1)
-gpgpu_operand_collector_num_out_ports_mem                    1 # number of collector unit in ports (default = 1)
-gpgpu_operand_collector_num_out_ports_gen                    0 # number of collector unit in ports (default = 0)
-gpgpu_coalesce_arch                   13 # Coalescing arch (default = 13, anything else is off for now)
-gpgpu_num_sched_per_core                    2 # Number of warp schedulers per core
-gpgpu_max_insn_issue_per_warp                    1 # Max number of instructions that can be issued per warp in one cycle by scheduler
-gpgpu_simt_core_sim_order                    1 # Select the simulation order of cores in a cluster (0=Fix, 1=Round-Robin)
-gpgpu_pipeline_widths        2,1,1,2,1,1,2 # Pipeline widths ID_OC_SP,ID_OC_SFU,ID_OC_MEM,OC_EX_SP,OC_EX_SFU,OC_EX_MEM,EX_WB
-gpgpu_num_sp_units                     2 # Number of SP units (default=1)
-gpgpu_num_sfu_units                    1 # Number of SF units (default=1)
-gpgpu_num_mem_units                    1 # Number if ldst units (default=1) WARNING: not hooked up to anything
-gpgpu_scheduler                      gto # Scheduler configuration: < lrr | gto | two_level_active > If two_level_active:<num_active_warps>:<inner_prioritization>:<outer_prioritization>For complete list of prioritization values see shader.h enum scheduler_prioritization_typeDefault: gto
-gpgpu_dram_scheduler                    1 # 0 = fifo, 1 = FR-FCFS (defaul)
-gpgpu_dram_partition_queues              8:8:8:8 # i2$:$2d:d2$:$2i
-l2_ideal                               0 # Use a ideal L2 cache that always hit
-gpgpu_cache:dl2     64:128:8,L:B:m:W,A:32:4,4:0,32 # unified banked L2 data cache config  {<nsets>:<bsize>:<assoc>,<rep>:<wr>:<alloc>:<wr_alloc>,<mshr>:<N>:<merge>,<mq>}
-gpgpu_cache:dl2_texture_only                    0 # L2 cache used for texture only
-gpgpu_n_mem                            6 # number of memory modules (e.g. memory controllers) in gpu
-gpgpu_n_sub_partition_per_mchannel                    2 # number of memory subpartition in each memory module
-gpgpu_n_mem_per_ctrlr                    2 # number of memory chips per memory controller
-gpgpu_memlatency_stat                   14 # track and display latency statistics 0x2 enables MC, 0x4 enables queue logs
-gpgpu_frfcfs_dram_sched_queue_size                   16 # 0 = unlimited (default); # entries per chip
-gpgpu_dram_return_queue_size                  116 # 0 = unlimited (default); # entries per chip
-gpgpu_dram_buswidth                    4 # default = 4 bytes (8 bytes per cycle at DDR)
-gpgpu_dram_burst_length                    8 # Burst length of each DRAM request (default = 4 data bus cycle)
-dram_data_command_freq_ratio                    4 # Frequency ratio between DRAM data bus and command bus (default = 2 times, i.e. DDR)
-gpgpu_dram_timing_opt nbk=16:CCD=2:RRD=6:RCD=12:RAS=28:RP=12:RC=40: CL=12:WL=4:CDLR=5:WR=12:nbkgrp=4:CCDL=3:RTPL=2 # DRAM timing parameters = {nbk:tCCD:tRRD:tRCD:tRAS:tRP:tRC:CL:WL:tCDLR:tWR:nbkgrp:tCCDL:tRTPL}
-rop_latency                          120 # ROP queue latency (default 85)
-dram_latency                         100 # DRAM latency (default 30)
-gpgpu_mem_addr_mapping dramid@8;00000000.00000000.00000000.00000000.0000RRRR.RRRRRRRR.BBBCCCCB.CCSSSSSS # mapping memory address to dram model {dramid@<start bit>;<memory address map>}
-gpgpu_mem_addr_test                    0 # run sweep test to check address mapping for aliased address
-gpgpu_mem_address_mask                    1 # 0 = old addressing mask, 1 = new addressing mask, 2 = new add. mask + flipped bank sel and chip sel bits
-gpuwattch_xml_file  gpuwattch_gtx480.xml # GPUWattch XML file
-power_simulation_enabled                    1 # Turn on power simulator (1=On, 0=Off)
-power_per_cycle_dump                    0 # Dump detailed power output each cycle
-power_trace_enabled                    0 # produce a file for the power trace (1=On, 0=Off)
-power_trace_zlevel                     6 # Compression level of the power trace output log (0=no comp, 9=highest)
-steady_power_levels_enabled                    0 # produce a file for the steady power levels (1=On, 0=Off)
-steady_state_definition                  8:4 # allowed deviation:number of samples
-gpgpu_max_cycle                        0 # terminates gpu simulation early (0 = no limit)
-gpgpu_max_insn                         0 # terminates gpu simulation early (0 = no limit)
-gpgpu_max_cta                          0 # terminates gpu simulation early (0 = no limit)
-gpgpu_runtime_stat                   500 # display runtime statistics such as dram utilization {<freq>:<flag>}
-liveness_message_freq                    1 # Minimum number of seconds between simulation liveness messages (0 = always print)
-gpgpu_flush_l1_cache                    0 # Flush L1 cache at the end of each kernel call
-gpgpu_flush_l2_cache                    0 # Flush L2 cache at the end of each kernel call
-gpgpu_deadlock_detect                    1 # Stop the simulation at deadlock (1=on (default), 0=off)
-gpgpu_ptx_instruction_classification                    0 # if enabled will classify ptx instruction types per kernel (Max 255 kernels now)
-gpgpu_ptx_sim_mode                     0 # Select between Performance (default) or Functional simulation (1)
-gpgpu_clock_domains 700.0:700.0:700.0:924.0 # Clock Domain Frequencies in MhZ {<Core Clock>:<ICNT Clock>:<L2 Clock>:<DRAM Clock>}
-gpgpu_max_concurrent_kernel                    8 # maximum kernels that can run concurrently on GPU
-gpgpu_cflog_interval                    0 # Interval between each snapshot in control flow logger
-visualizer_enabled                     0 # Turn on visualizer output (1=On, 0=Off)
-visualizer_outputfile                 NULL # Specifies the output log file for visualizer
-visualizer_zlevel                      6 # Compression level of the visualizer output log (0=no comp, 9=highest)
-trace_enabled                          0 # Turn on traces
-trace_components                    none # comma seperated list of traces to enable. Complete list found in trace_streams.tup. Default none
-trace_sampling_core                    0 # The core which is printed using CORE_DPRINTF. Default 0
-trace_sampling_memory_partition                   -1 # The memory partition which is printed using MEMPART_DPRINTF. Default -1 (i.e. all)
-enable_ptx_file_line_stats                    1 # Turn on PTX source line statistic profiling. (1 = On)
-ptx_line_stats_filename gpgpu_inst_stats.txt # Output file for PTX source line statistics.
-save_embedded_ptx                      0 # saves ptx files embedded in binary as <n>.ptx
-keep                                   0 # keep intermediate files created by GPGPU-Sim when interfacing with external programs
-gpgpu_ptx_save_converted_ptxplus                    0 # Saved converted ptxplus to a file
-ptx_opcode_latency_int         4,13,4,5,145 # Opcode latencies for integers <ADD,MAX,MUL,MAD,DIV>Default 1,1,19,25,145
-ptx_opcode_latency_fp          4,13,4,5,39 # Opcode latencies for single precision floating points <ADD,MAX,MUL,MAD,DIV>Default 1,1,1,1,30
-ptx_opcode_latency_dp         8,19,8,8,330 # Opcode latencies for double precision floating points <ADD,MAX,MUL,MAD,DIV>Default 8,8,8,8,335
-ptx_opcode_initiation_int            1,2,2,1,8 # Opcode initiation intervals for integers <ADD,MAX,MUL,MAD,DIV>Default 1,1,4,4,32
-ptx_opcode_initiation_fp            1,2,1,1,4 # Opcode initiation intervals for single precision floating points <ADD,MAX,MUL,MAD,DIV>Default 1,1,1,1,5
-ptx_opcode_initiation_dp         8,16,8,8,130 # Opcode initiation intervals for double precision floating points <ADD,MAX,MUL,MAD,DIV>Default 8,8,8,8,130
DRAM Timing Options:
nbk                                    16 # number of banks
CCD                                     2 # column to column delay
RRD                                     6 # minimal delay between activation of rows in different banks
RCD                                    12 # row to column delay
RAS                                    28 # time needed to activate row
RP                                     12 # time needed to precharge (deactivate) row
RC                                     40 # row cycle time
CDLR                                    5 # switching from write to read (changes tWTR)
WR                                     12 # last data-in to row precharge
CL                                     12 # CAS latency
WL                                      4 # Write latency
nbkgrp                                  4 # number of bank groups
CCDL                                    3 # column to column delay between accesses to different bank groups
RTPL                                    2 # read to precharge delay between accesses to different bank groups
Total number of memory sub partition = 12
addr_dec_mask[CHIP]  = 0000000000000000 	high:64 low:0
addr_dec_mask[BK]    = 000000000000e100 	high:16 low:8
addr_dec_mask[ROW]   = 000000000fff0000 	high:28 low:16
addr_dec_mask[COL]   = 0000000000001eff 	high:13 low:0
addr_dec_mask[BURST] = 000000000000003f 	high:6 low:0
sub_partition_id_mask = 0000000000000100
GPGPU-Sim uArch: clock freqs: 700000000.000000:700000000.000000:700000000.000000:924000000.000000
GPGPU-Sim uArch: clock periods: 0.00000000142857142857:0.00000000142857142857:0.00000000142857142857:0.00000000108225108225
*** Initializing Memory Statistics ***
GPGPU-Sim uArch: interconnect node map (shaderID+MemID to icntID)
GPGPU-Sim uArch: Memory nodes ID start from index: 15
GPGPU-Sim uArch:    0   1   2   3   4
GPGPU-Sim uArch:    5   6   7   8   9
GPGPU-Sim uArch:   10  11  12  13  14
GPGPU-Sim uArch:   15  16  17  18  19
GPGPU-Sim uArch:   20  21  22  23  24
GPGPU-Sim uArch:   25  26
GPGPU-Sim uArch: interconnect node reverse map (icntID to shaderID+MemID)
GPGPU-Sim uArch: Memory nodes start from ID: 15
GPGPU-Sim uArch:    0   1   2   3   4
GPGPU-Sim uArch:    5   6   7   8   9
GPGPU-Sim uArch:   10  11  12  13  14
GPGPU-Sim uArch:   15  16  17  18  19
GPGPU-Sim uArch:   20  21  22  23  24
GPGPU-Sim uArch:   25  26
a42e8fbd8388d0e59aa89398787a0dab  /home/jaineshdoshi/Documents/GPGPU-sim/gpgpu-sim/ispass2009-benchmarks/bin/release/NN
GPGPU-Sim uArch: performance model initialization complete.
GPGPU-Sim PTX: __cudaRegisterFatBinary, fat_cubin_handle = 1, filename=NN.cu
self exe links to: /home/jaineshdoshi/Documents/GPGPU-sim/gpgpu-sim/ispass2009-benchmarks/bin/release/NN
Running md5sum using "md5sum /home/jaineshdoshi/Documents/GPGPU-sim/gpgpu-sim/ispass2009-benchmarks/bin/release/NN "
Running cuobjdump using "$CUDA_INSTALL_PATH/bin/cuobjdump -ptx -elf -sass /home/jaineshdoshi/Documents/GPGPU-sim/gpgpu-sim/ispass2009-benchmarks/bin/release/NN > _cuobjdump_complete_output_0jYa2c"
Parsing file _cuobjdump_complete_output_0jYa2c
######### cuobjdump parser ########
## Adding new section PTX
Adding ptx filename: _cuobjdump_1.ptx
Adding arch: sm_30
Adding identifier: NN.cu
## Adding new section ELF
Adding arch: sm_30
Adding identifier: NN.cu
## Adding new section ELF
Adding arch: sm_20
Adding identifier: NN.cu
## Adding new section PTX
Adding ptx filename: _cuobjdump_2.ptx
Adding arch: sm_20
Adding identifier: NN.cu
## Adding new section ELF
Adding arch: sm_10
Adding identifier: NN.cu
## Adding new section PTX
Adding ptx filename: _cuobjdump_3.ptx
Adding arch: sm_10
Adding identifier: NN.cu
Done parsing!!!
GPGPU-Sim PTX: __cudaRegisterFunction _Z18executeFourthLayerPfS_S_ : hostFun 0x0x401110, fat_cubin_handle = 1
GPGPU-Sim PTX: allocating constant region for "kernelTemplate" from 0x100 to 0x164 (global memory space) 1
GPGPU-Sim PTX: allocating constant region for "kernelTemplate2" from 0x180 to 0x1e4 (global memory space) 2
GPGPU-Sim PTX: instruction assembly for function '_Z17executeFirstLayerPfS_S_'...   done.
GPGPU-Sim PTX: finding reconvergence points for '_Z17executeFirstLayerPfS_S_'...
GPGPU-Sim PTX: Finding dominators for '_Z17executeFirstLayerPfS_S_'...
GPGPU-Sim PTX: Finding immediate dominators for '_Z17executeFirstLayerPfS_S_'...
GPGPU-Sim PTX: Finding postdominators for '_Z17executeFirstLayerPfS_S_'...
GPGPU-Sim PTX: Finding immediate postdominators for '_Z17executeFirstLayerPfS_S_'...
GPGPU-Sim PTX: pre-decoding instructions for '_Z17executeFirstLayerPfS_S_'...
GPGPU-Sim PTX: reconvergence points for _Z17executeFirstLayerPfS_S_...
GPGPU-Sim PTX:  1 (potential) branch divergence @  PC=0x268 (_1.ptx:126) @%p1 bra BB0_1;
GPGPU-Sim PTX:    immediate post dominator      @  PC=0x270 (_1.ptx:129) cvt.f64.f32 %fd1, %f52;
GPGPU-Sim PTX:  2 (potential) branch divergence @  PC=0x298 (_1.ptx:136) @%p2 bra BB0_4;
GPGPU-Sim PTX:    immediate post dominator      @  PC=0x3c0 (_1.ptx:202) cvt.f64.f32 %fd3, %f53;
GPGPU-Sim PTX:  3 (potential) branch divergence @  PC=0x350 (_1.ptx:175) bra.uni BB0_5;
GPGPU-Sim PTX:    immediate post dominator      @  PC=0x3c0 (_1.ptx:202) cvt.f64.f32 %fd3, %f53;
GPGPU-Sim PTX: ... end of reconvergence points for _Z17executeFirstLayerPfS_S_
GPGPU-Sim PTX: ... done pre-decoding instructions for '_Z17executeFirstLayerPfS_S_'.
GPGPU-Sim PTX: instruction assembly for function '_Z18executeSecondLayerPfS_S_'...   done.
GPGPU-Sim PTX: finding reconvergence points for '_Z18executeSecondLayerPfS_S_'...
GPGPU-Sim PTX: Finding dominators for '_Z18executeSecondLayerPfS_S_'...
GPGPU-Sim PTX: Finding immediate dominators for '_Z18executeSecondLayerPfS_S_'...
GPGPU-Sim PTX: Finding postdominators for '_Z18executeSecondLayerPfS_S_'...
GPGPU-Sim PTX: Finding immediate postdominators for '_Z18executeSecondLayerPfS_S_'...
GPGPU-Sim PTX: pre-decoding instructions for '_Z18executeSecondLayerPfS_S_'...
GPGPU-Sim PTX: reconvergence points for _Z18executeSecondLayerPfS_S_...
GPGPU-Sim PTX:  1 (potential) branch divergence @  PC=0x768 (_1.ptx:374) @%p6 bra BB1_1;
GPGPU-Sim PTX:    immediate post dominator      @  PC=0x770 (_1.ptx:377) cvt.f64.f32 %fd1, %f57;
GPGPU-Sim PTX:  2 (potential) branch divergence @  PC=0x798 (_1.ptx:384) @%p7 bra BB1_4;
GPGPU-Sim PTX:    immediate post dominator      @  PC=0x8c0 (_1.ptx:450) cvt.f64.f32 %fd3, %f58;
GPGPU-Sim PTX:  3 (potential) branch divergence @  PC=0x850 (_1.ptx:423) bra.uni BB1_5;
GPGPU-Sim PTX:    immediate post dominator      @  PC=0x8c0 (_1.ptx:450) cvt.f64.f32 %fd3, %f58;
GPGPU-Sim PTX: ... end of reconvergence points for _Z18executeSecondLayerPfS_S_
GPGPU-Sim PTX: ... done pre-decoding instructions for '_Z18executeSecondLayerPfS_S_'.
GPGPU-Sim PTX: instruction assembly for function '_Z17executeThirdLayerPfS_S_'...   done.
GPGPU-Sim PTX: finding reconvergence points for '_Z17executeThirdLayerPfS_S_'...
GPGPU-Sim PTX: Finding dominators for '_Z17executeThirdLayerPfS_S_'...
GPGPU-Sim PTX: Finding immediate dominators for '_Z17executeThirdLayerPfS_S_'...
GPGPU-Sim PTX: Finding postdominators for '_Z17executeThirdLayerPfS_S_'...
GPGPU-Sim PTX: Finding immediate postdominators for '_Z17executeThirdLayerPfS_S_'...
GPGPU-Sim PTX: pre-decoding instructions for '_Z17executeThirdLayerPfS_S_'...
GPGPU-Sim PTX: reconvergence points for _Z17executeThirdLayerPfS_S_...
GPGPU-Sim PTX:  1 (potential) branch divergence @  PC=0xd08 (_1.ptx:648) @%p1 bra BB2_1;
GPGPU-Sim PTX:    immediate post dominator      @  PC=0xd10 (_1.ptx:651) cvt.f64.f32 %fd1, %f67;
GPGPU-Sim PTX:  2 (potential) branch divergence @  PC=0xd38 (_1.ptx:658) @%p2 bra BB2_4;
GPGPU-Sim PTX:    immediate post dominator      @  PC=0xe60 (_1.ptx:724) cvt.f64.f32 %fd3, %f68;
GPGPU-Sim PTX:  3 (potential) branch divergence @  PC=0xdf0 (_1.ptx:697) bra.uni BB2_5;
GPGPU-Sim PTX:    immediate post dominator      @  PC=0xe60 (_1.ptx:724) cvt.f64.f32 %fd3, %f68;
GPGPU-Sim PTX: ... end of reconvergence points for _Z17executeThirdLayerPfS_S_
GPGPU-Sim PTX: ... done pre-decoding instructions for '_Z17executeThirdLayerPfS_S_'.
GPGPU-Sim PTX: instruction assembly for function '_Z18executeFourthLayerPfS_S_'...   done.
GPGPU-Sim PTX: finding reconvergence points for '_Z18executeFourthLayerPfS_S_'...
GPGPU-Sim PTX: Finding dominators for '_Z18executeFourthLayerPfS_S_'...
GPGPU-Sim PTX: Finding immediate dominators for '_Z18executeFourthLayerPfS_S_'...
GPGPU-Sim PTX: Finding postdominators for '_Z18executeFourthLayerPfS_S_'...
GPGPU-Sim PTX: Finding immediate postdominators for '_Z18executeFourthLayerPfS_S_'...
GPGPU-Sim PTX: pre-decoding instructions for '_Z18executeFourthLayerPfS_S_'...
GPGPU-Sim PTX: reconvergence points for _Z18executeFourthLayerPfS_S_...
GPGPU-Sim PTX:  1 (potential) branch divergence @  PC=0x1290 (_1.ptx:917) @%p1 bra BB3_1;
GPGPU-Sim PTX:    immediate post dominator      @  PC=0x1298 (_1.ptx:920) cvt.f64.f32 %fd1, %f67;
GPGPU-Sim PTX:  2 (potential) branch divergence @  PC=0x12c0 (_1.ptx:927) @%p2 bra BB3_4;
GPGPU-Sim PTX:    immediate post dominator      @  PC=0x13e8 (_1.ptx:993) cvt.f64.f32 %fd3, %f68;
GPGPU-Sim PTX:  3 (potential) branch divergence @  PC=0x1378 (_1.ptx:966) bra.uni BB3_5;
GPGPU-Sim PTX:    immediate post dominator      @  PC=0x13e8 (_1.ptx:993) cvt.f64.f32 %fd3, %f68;
GPGPU-Sim PTX: ... end of reconvergence points for _Z18executeFourthLayerPfS_S_
GPGPU-Sim PTX: ... done pre-decoding instructions for '_Z18executeFourthLayerPfS_S_'.
GPGPU-Sim PTX: finished parsing EMBEDDED .ptx file _1.ptx
Adding _cuobjdump_2.ptx with cubin handle 1
GPGPU-Sim PTX: extracting embedded .ptx to temporary file "_ptx_LPSnrp"
Running: cat _ptx_LPSnrp | sed 's/.version 1.5/.version 1.4/' | sed 's/, texmode_independent//' | sed 's/\(\.extern \.const\[1\] .b8 \w\+\)\[\]/\1\[1\]/' | sed 's/const\[.\]/const\[0\]/g' > _ptx2_8WMBQB
GPGPU-Sim PTX: generating ptxinfo using "$CUDA_INSTALL_PATH/bin/ptxas --gpu-name=sm_20 -v _ptx2_8WMBQB --output-file  /dev/null 2> _ptx_LPSnrpinfo"
GPGPU-Sim PTX: Kernel '_Z17executeThirdLayerPfS_S_' : regs=28, lmem=0, smem=0, cmem=304
GPGPU-Sim PTX: Kernel '_Z17executeFirstLayerPfS_S_' : regs=22, lmem=0, smem=0, cmem=284
GPGPU-Sim PTX: Kernel '_Z18executeFourthLayerPfS_S_' : regs=33, lmem=0, smem=0, cmem=300
GPGPU-Sim PTX: Kernel '_Z18executeSecondLayerPfS_S_' : regs=46, lmem=0, smem=0, cmem=292
GPGPU-Sim PTX: removing ptxinfo using "rm -f _ptx_LPSnrp _ptx2_8WMBQB _ptx_LPSnrpinfo"
GPGPU-Sim PTX: loading globals with explicit initializers... 
GPGPU-Sim PTX: finished loading globals (0 bytes total).
GPGPU-Sim PTX: loading constants with explicit initializers...  done.
GPGPU-Sim PTX: __cudaRegisterFunction _Z17executeThirdLayerPfS_S_ : hostFun 0x0x4011a0, fat_cubin_handle = 1
GPGPU-Sim PTX: __cudaRegisterFunction _Z18executeSecondLayerPfS_S_ : hostFun 0x0x401230, fat_cubin_handle = 1
GPGPU-Sim PTX: __cudaRegisterFunction _Z17executeFirstLayerPfS_S_ : hostFun 0x0x4012c0, fat_cubin_handle = 1
GPGPU-Sim PTX: __cudaRegisterVar: hostVar = 0x61c160; deviceAddress = kernelTemplate; deviceName = kernelTemplate
GPGPU-Sim PTX: __cudaRegisterVar: Registering const memory space of 100 bytes
GPGPU-Sim PTX registering constant kernelTemplate (100 bytes) to name mapping
GPGPU-Sim PTX: __cudaRegisterVar: hostVar = 0x61c1e0; deviceAddress = kernelTemplate2; deviceName = kernelTemplate2
GPGPU-Sim PTX: __cudaRegisterVar: Registering const memory space of 100 bytes
GPGPU-Sim PTX registering constant kernelTemplate2 (100 bytes) to name mapping
magic number = 2051
number of items = 10000
number of rows = 28
number of rows = 28
NUM=28

GPGPU-Sim PTX: cudaLaunch for 0x0x4012c0 (mode=performance simulation) on stream 0
GPGPU-Sim PTX: pushing kernel '_Z17executeFirstLayerPfS_S_' to stream 0, gridDim= (6,28,1) blockDim = (13,13,1) 
kernel '_Z17executeFirstLayerPfS_S_' transfer to GPU hardware scheduler
GPGPU-Sim uArch: Shader 1 bind to kernel 1 '_Z17executeFirstLayerPfS_S_'
GPGPU-Sim uArch: CTA/core = 7, limited by: regs
GPGPU-Sim uArch: core:  1, cta: 0 initialized @(1,0)
GPGPU-Sim uArch: Shader 2 bind to kernel 1 '_Z17executeFirstLayerPfS_S_'
GPGPU-Sim uArch: core:  2, cta: 0 initialized @(1,0)
GPGPU-Sim uArch: Shader 3 bind to kernel 1 '_Z17executeFirstLayerPfS_S_'
GPGPU-Sim uArch: core:  3, cta: 0 initialized @(1,0)
GPGPU-Sim uArch: Shader 4 bind to kernel 1 '_Z17executeFirstLayerPfS_S_'
GPGPU-Sim uArch: core:  4, cta: 0 initialized @(1,0)
GPGPU-Sim uArch: Shader 5 bind to kernel 1 '_Z17executeFirstLayerPfS_S_'
GPGPU-Sim uArch: core:  5, cta: 0 initialized @(1,0)
GPGPU-Sim uArch: Shader 6 bind to kernel 1 '_Z17executeFirstLayerPfS_S_'
GPGPU-Sim uArch: core:  6, cta: 0 initialized @(1,0)
GPGPU-Sim uArch: Shader 7 bind to kernel 1 '_Z17executeFirstLayerPfS_S_'
GPGPU-Sim uArch: core:  7, cta: 0 initialized @(1,0)
GPGPU-Sim uArch: Shader 8 bind to kernel 1 '_Z17executeFirstLayerPfS_S_'
GPGPU-Sim uArch: core:  8, cta: 0 initialized @(1,0)
GPGPU-Sim uArch: Shader 9 bind to kernel 1 '_Z17executeFirstLayerPfS_S_'
GPGPU-Sim uArch: core:  9, cta: 0 initialized @(1,0)
GPGPU-Sim uArch: Shader 10 bind to kernel 1 '_Z17executeFirstLayerPfS_S_'
GPGPU-Sim uArch: core: 10, cta: 0 initialized @(1,0)
GPGPU-Sim uArch: Shader 11 bind to kernel 1 '_Z17executeFirstLayerPfS_S_'
GPGPU-Sim uArch: core: 11, cta: 0 initialized @(1,0)
GPGPU-Sim uArch: Shader 12 bind to kernel 1 '_Z17executeFirstLayerPfS_S_'
GPGPU-Sim uArch: core: 12, cta: 0 initialized @(1,0)
GPGPU-Sim uArch: Shader 13 bind to kernel 1 '_Z17executeFirstLayerPfS_S_'
GPGPU-Sim uArch: core: 13, cta: 0 initialized @(1,0)
GPGPU-Sim uArch: Shader 14 bind to kernel 1 '_Z17executeFirstLayerPfS_S_'
GPGPU-Sim uArch: core: 14, cta: 0 initialized @(1,0)
GPGPU-Sim uArch: Shader 0 bind to kernel 1 '_Z17executeFirstLayerPfS_S_'
GPGPU-Sim uArch: core:  0, cta: 0 initialized @(1,0)
GPGPU-Sim uArch: core:  1, cta: 1 initialized @(2,0)
GPGPU-Sim uArch: core:  2, cta: 1 initialized @(2,0)
GPGPU-Sim uArch: core:  3, cta: 1 initialized @(2,0)
GPGPU-Sim uArch: core:  4, cta: 1 initialized @(2,0)
GPGPU-Sim uArch: core:  5, cta: 1 initialized @(2,0)
GPGPU-Sim uArch: core:  6, cta: 1 initialized @(2,0)
GPGPU-Sim uArch: core:  7, cta: 1 initialized @(2,0)
GPGPU-Sim uArch: core:  8, cta: 1 initialized @(2,0)
GPGPU-Sim uArch: core:  9, cta: 1 initialized @(2,0)
GPGPU-Sim uArch: core: 10, cta: 1 initialized @(2,0)
GPGPU-Sim uArch: core: 11, cta: 1 initialized @(2,0)
GPGPU-Sim uArch: core: 12, cta: 1 initialized @(2,0)
GPGPU-Sim uArch: core: 13, cta: 1 initialized @(2,0)
GPGPU-Sim uArch: core: 14, cta: 1 initialized @(2,0)
GPGPU-Sim uArch: core:  0, cta: 1 initialized @(2,0)
GPGPU-Sim uArch: core:  1, cta: 2 initialized @(3,0)
GPGPU-Sim uArch: core:  2, cta: 2 initialized @(3,0)
GPGPU-Sim uArch: core:  3, cta: 2 initialized @(3,0)
GPGPU-Sim uArch: core:  4, cta: 2 initialized @(3,0)
GPGPU-Sim uArch: core:  5, cta: 2 initialized @(3,0)
GPGPU-Sim uArch: core:  6, cta: 2 initialized @(3,0)
GPGPU-Sim uArch: core:  7, cta: 2 initialized @(3,0)
GPGPU-Sim uArch: core:  8, cta: 2 initialized @(3,0)
GPGPU-Sim uArch: core:  9, cta: 2 initialized @(3,0)
GPGPU-Sim uArch: core: 10, cta: 2 initialized @(3,0)
GPGPU-Sim uArch: core: 11, cta: 2 initialized @(3,0)
GPGPU-Sim uArch: core: 12, cta: 2 initialized @(3,0)
GPGPU-Sim uArch: core: 13, cta: 2 initialized @(3,0)
GPGPU-Sim uArch: core: 14, cta: 2 initialized @(3,0)
GPGPU-Sim uArch: core:  0, cta: 2 initialized @(3,0)
GPGPU-Sim uArch: core:  1, cta: 3 initialized @(4,0)
GPGPU-Sim uArch: core:  2, cta: 3 initialized @(4,0)
GPGPU-Sim uArch: core:  3, cta: 3 initialized @(4,0)
GPGPU-Sim uArch: core:  4, cta: 3 initialized @(4,0)
GPGPU-Sim uArch: core:  5, cta: 3 initialized @(4,0)
GPGPU-Sim uArch: core:  6, cta: 3 initialized @(4,0)
GPGPU-Sim uArch: core:  7, cta: 3 initialized @(4,0)
GPGPU-Sim uArch: core:  8, cta: 3 initialized @(4,0)
GPGPU-Sim uArch: core:  9, cta: 3 initialized @(4,0)
GPGPU-Sim uArch: core: 10, cta: 3 initialized @(4,0)
GPGPU-Sim uArch: core: 11, cta: 3 initialized @(4,0)
GPGPU-Sim uArch: core: 12, cta: 3 initialized @(4,0)
GPGPU-Sim uArch: core: 13, cta: 3 initialized @(4,0)
GPGPU-Sim uArch: core: 14, cta: 3 initialized @(4,0)
GPGPU-Sim uArch: core:  0, cta: 3 initialized @(4,0)
GPGPU-Sim uArch: core:  1, cta: 4 initialized @(5,0)
GPGPU-Sim uArch: core:  2, cta: 4 initialized @(5,0)
GPGPU-Sim uArch: core:  3, cta: 4 initialized @(5,0)
GPGPU-Sim uArch: core:  4, cta: 4 initialized @(5,0)
GPGPU-Sim uArch: core:  5, cta: 4 initialized @(5,0)
GPGPU-Sim uArch: core:  6, cta: 4 initialized @(5,0)
GPGPU-Sim uArch: core:  7, cta: 4 initialized @(5,0)
GPGPU-Sim uArch: core:  8, cta: 4 initialized @(5,0)
GPGPU-Sim uArch: core:  9, cta: 4 initialized @(5,0)
GPGPU-Sim uArch: core: 10, cta: 4 initialized @(5,0)
GPGPU-Sim uArch: core: 11, cta: 4 initialized @(5,0)
GPGPU-Sim uArch: core: 12, cta: 4 initialized @(5,0)
GPGPU-Sim uArch: core: 13, cta: 4 initialized @(5,0)
GPGPU-Sim uArch: core: 14, cta: 4 initialized @(5,0)
GPGPU-Sim uArch: core:  0, cta: 4 initialized @(5,0)
GPGPU-Sim uArch: core:  1, cta: 5 initialized @(6,0)
GPGPU-Sim uArch: core:  2, cta: 5 initialized @(6,0)
GPGPU-Sim uArch: core:  3, cta: 5 initialized @(6,0)
GPGPU-Sim uArch: core:  4, cta: 5 initialized @(6,0)
GPGPU-Sim uArch: core:  5, cta: 5 initialized @(6,0)
GPGPU-Sim uArch: core:  6, cta: 5 initialized @(6,0)
GPGPU-Sim uArch: core:  7, cta: 5 initialized @(6,0)
GPGPU-Sim uArch: core:  8, cta: 5 initialized @(6,0)
GPGPU-Sim uArch: core:  9, cta: 5 initialized @(6,0)
GPGPU-Sim uArch: core: 10, cta: 5 initialized @(6,0)
GPGPU-Sim uArch: core: 11, cta: 5 initialized @(6,0)
GPGPU-Sim uArch: core: 12, cta: 5 initialized @(6,0)
GPGPU-Sim uArch: core: 13, cta: 5 initialized @(6,0)
GPGPU-Sim uArch: core: 14, cta: 5 initialized @(6,0)
GPGPU-Sim uArch: core:  0, cta: 5 initialized @(6,0)
GPGPU-Sim uArch: core:  1, cta: 6 initialized @(7,0)
GPGPU-Sim uArch: core:  2, cta: 6 initialized @(7,0)
GPGPU-Sim uArch: core:  3, cta: 6 initialized @(7,0)
GPGPU-Sim uArch: core:  4, cta: 6 initialized @(7,0)
GPGPU-Sim uArch: core:  5, cta: 6 initialized @(7,0)
GPGPU-Sim uArch: core:  6, cta: 6 initialized @(7,0)
GPGPU-Sim uArch: core:  7, cta: 6 initialized @(7,0)
GPGPU-Sim uArch: core:  8, cta: 6 initialized @(7,0)
GPGPU-Sim uArch: core:  9, cta: 6 initialized @(7,0)
GPGPU-Sim uArch: core: 10, cta: 6 initialized @(7,0)
GPGPU-Sim uArch: core: 11, cta: 6 initialized @(7,0)
GPGPU-Sim uArch: core: 12, cta: 6 initialized @(7,0)
GPGPU-Sim uArch: core: 13, cta: 6 initialized @(7,0)
GPGPU-Sim uArch: core: 14, cta: 6 initialized @(7,0)
GPGPU-Sim uArch: core:  0, cta: 6 initialized @(7,0)
GPGPU-Sim uArch: cycles simulated: 500  inst.: 0 (ipc= 0.0) sim_rate=0 (inst/sec) elapsed = 0:0:00:01 / Mon Jun  6 20:38:46 2016
GPGPU-Sim PTX: 100000 instructions simulated : ctaid=(3,8,0) tid=(2,0,0)
GPGPU-Sim PTX: 200000 instructions simulated : ctaid=(0,11,0) tid=(7,8,0)
GPGPU-Sim uArch: cycles simulated: 1000  inst.: 216056 (ipc=216.1) sim_rate=72018 (inst/sec) elapsed = 0:0:00:03 / Mon Jun  6 20:38:48 2016
GPGPU-Sim PTX: 300000 instructions simulated : ctaid=(0,11,0) tid=(11,1,0)
GPGPU-Sim PTX: 400000 instructions simulated : ctaid=(2,5,0) tid=(7,3,0)
GPGPU-Sim uArch: cycles simulated: 1500  inst.: 466103 (ipc=310.7) sim_rate=93220 (inst/sec) elapsed = 0:0:00:05 / Mon Jun  6 20:38:50 2016
GPGPU-Sim PTX: 500000 instructions simulated : ctaid=(2,12,0) tid=(8,7,0)
GPGPU-Sim PTX: 600000 instructions simulated : ctaid=(5,1,0) tid=(2,6,0)
GPGPU-Sim uArch: cycles simulated: 2000  inst.: 608118 (ipc=304.1) sim_rate=101353 (inst/sec) elapsed = 0:0:00:06 / Mon Jun  6 20:38:51 2016
GPGPU-Sim uArch: cycles simulated: 2500  inst.: 615653 (ipc=246.3) sim_rate=87950 (inst/sec) elapsed = 0:0:00:07 / Mon Jun  6 20:38:52 2016
GPGPU-Sim uArch: cycles simulated: 3000  inst.: 649042 (ipc=216.3) sim_rate=81130 (inst/sec) elapsed = 0:0:00:08 / Mon Jun  6 20:38:53 2016
GPGPU-Sim PTX: 700000 instructions simulated : ctaid=(5,3,0) tid=(11,6,0)
GPGPU-Sim uArch: cycles simulated: 3500  inst.: 722389 (ipc=206.4) sim_rate=72238 (inst/sec) elapsed = 0:0:00:10 / Mon Jun  6 20:38:55 2016
GPGPU-Sim PTX: 800000 instructions simulated : ctaid=(4,3,0) tid=(0,0,0)
GPGPU-Sim uArch: cycles simulated: 4000  inst.: 853016 (ipc=213.3) sim_rate=71084 (inst/sec) elapsed = 0:0:00:12 / Mon Jun  6 20:38:57 2016
GPGPU-Sim PTX: 900000 instructions simulated : ctaid=(0,1,0) tid=(1,5,0)
GPGPU-Sim PTX: 1000000 instructions simulated : ctaid=(4,1,0) tid=(11,0,0)
GPGPU-Sim uArch: cycles simulated: 4500  inst.: 1047430 (ipc=232.8) sim_rate=74816 (inst/sec) elapsed = 0:0:00:14 / Mon Jun  6 20:38:59 2016
GPGPU-Sim PTX: 1100000 instructions simulated : ctaid=(4,7,0) tid=(5,6,0)
GPGPU-Sim PTX: 1200000 instructions simulated : ctaid=(4,1,0) tid=(11,4,0)
GPGPU-Sim PTX: 1300000 instructions simulated : ctaid=(4,4,0) tid=(6,8,0)
GPGPU-Sim uArch: cycles simulated: 5000  inst.: 1326611 (ipc=265.3) sim_rate=82913 (inst/sec) elapsed = 0:0:00:16 / Mon Jun  6 20:39:01 2016
GPGPU-Sim PTX: 1400000 instructions simulated : ctaid=(3,4,0) tid=(11,11,0)
GPGPU-Sim PTX: 1500000 instructions simulated : ctaid=(2,4,0) tid=(0,0,0)
GPGPU-Sim PTX: 1600000 instructions simulated : ctaid=(3,6,0) tid=(9,8,0)
GPGPU-Sim uArch: cycles simulated: 5500  inst.: 1625236 (ipc=295.5) sim_rate=85538 (inst/sec) elapsed = 0:0:00:19 / Mon Jun  6 20:39:04 2016
GPGPU-Sim PTX: 1700000 instructions simulated : ctaid=(1,0,0) tid=(6,1,0)
GPGPU-Sim PTX: 1800000 instructions simulated : ctaid=(2,4,0) tid=(4,0,0)
GPGPU-Sim PTX: 1900000 instructions simulated : ctaid=(1,4,0) tid=(8,8,0)
GPGPU-Sim uArch: cycles simulated: 6000  inst.: 1934627 (ipc=322.4) sim_rate=92125 (inst/sec) elapsed = 0:0:00:21 / Mon Jun  6 20:39:06 2016
GPGPU-Sim PTX: 2000000 instructions simulated : ctaid=(5,3,0) tid=(9,0,0)
GPGPU-Sim PTX: 2100000 instructions simulated : ctaid=(2,7,0) tid=(0,0,0)
GPGPU-Sim PTX: 2200000 instructions simulated : ctaid=(1,11,0) tid=(3,7,0)
GPGPU-Sim uArch: cycles simulated: 6500  inst.: 2222280 (ipc=341.9) sim_rate=92595 (inst/sec) elapsed = 0:0:00:24 / Mon Jun  6 20:39:09 2016
GPGPU-Sim PTX: 2300000 instructions simulated : ctaid=(4,14,0) tid=(7,5,0)
GPGPU-Sim PTX: 2400000 instructions simulated : ctaid=(3,6,0) tid=(7,9,0)
GPGPU-Sim uArch: cycles simulated: 7000  inst.: 2478691 (ipc=354.1) sim_rate=95334 (inst/sec) elapsed = 0:0:00:26 / Mon Jun  6 20:39:11 2016
GPGPU-Sim PTX: 2500000 instructions simulated : ctaid=(2,13,0) tid=(2,10,0)
GPGPU-Sim PTX: 2600000 instructions simulated : ctaid=(4,2,0) tid=(7,4,0)
GPGPU-Sim PTX: 2700000 instructions simulated : ctaid=(1,4,0) tid=(12,4,0)
GPGPU-Sim uArch: cycles simulated: 7500  inst.: 2717703 (ipc=362.4) sim_rate=97060 (inst/sec) elapsed = 0:0:00:28 / Mon Jun  6 20:39:13 2016
GPGPU-Sim PTX: 2800000 instructions simulated : ctaid=(2,1,0) tid=(6,8,0)
GPGPU-Sim PTX: 2900000 instructions simulated : ctaid=(0,12,0) tid=(3,12,0)
GPGPU-Sim uArch: cycles simulated: 8000  inst.: 2903332 (ipc=362.9) sim_rate=96777 (inst/sec) elapsed = 0:0:00:30 / Mon Jun  6 20:39:15 2016
GPGPU-Sim uArch: Shader 1 finished CTA #0 (8085,0), 6 CTAs running
GPGPU-Sim uArch: core:  1, cta: 0 initialized @(8086,0)
GPGPU-Sim uArch: Shader 2 finished CTA #0 (8097,0), 6 CTAs running
GPGPU-Sim uArch: core:  2, cta: 0 initialized @(8098,0)
GPGPU-Sim uArch: Shader 0 finished CTA #0 (8099,0), 6 CTAs running
GPGPU-Sim uArch: core:  0, cta: 0 initialized @(8100,0)
GPGPU-Sim PTX: 3000000 instructions simulated : ctaid=(2,6,0) tid=(1,9,0)
GPGPU-Sim PTX: 3100000 instructions simulated : ctaid=(1,9,0) tid=(1,3,0)
GPGPU-Sim uArch: cycles simulated: 8500  inst.: 3089798 (ipc=363.5) sim_rate=96556 (inst/sec) elapsed = 0:0:00:32 / Mon Jun  6 20:39:17 2016
GPGPU-Sim uArch: Shader 3 finished CTA #0 (8571,0), 6 CTAs running
GPGPU-Sim uArch: core:  3, cta: 0 initialized @(8572,0)
GPGPU-Sim uArch: Shader 6 finished CTA #0 (8670,0), 6 CTAs running
GPGPU-Sim uArch: core:  6, cta: 0 initialized @(8671,0)
GPGPU-Sim PTX: 3200000 instructions simulated : ctaid=(0,8,0) tid=(2,7,0)
GPGPU-Sim uArch: Shader 12 finished CTA #0 (8928,0), 6 CTAs running
GPGPU-Sim uArch: core: 12, cta: 0 initialized @(8929,0)
GPGPU-Sim PTX: 3300000 instructions simulated : ctaid=(5,6,0) tid=(1,4,0)
GPGPU-Sim uArch: cycles simulated: 9000  inst.: 3287367 (ipc=365.3) sim_rate=96687 (inst/sec) elapsed = 0:0:00:34 / Mon Jun  6 20:39:19 2016
GPGPU-Sim uArch: Shader 10 finished CTA #0 (9085,0), 6 CTAs running
GPGPU-Sim uArch: core: 10, cta: 0 initialized @(9086,0)
GPGPU-Sim PTX: 3400000 instructions simulated : ctaid=(1,12,0) tid=(6,0,0)
GPGPU-Sim uArch: Shader 4 finished CTA #1 (9217,0), 6 CTAs running
GPGPU-Sim uArch: core:  4, cta: 1 initialized @(9218,0)
GPGPU-Sim uArch: Shader 10 finished CTA #1 (9360,0), 6 CTAs running
GPGPU-Sim uArch: core: 10, cta: 1 initialized @(9361,0)
GPGPU-Sim uArch: Shader 6 finished CTA #1 (9406,0), 6 CTAs running
GPGPU-Sim uArch: core:  6, cta: 1 initialized @(9407,0)
GPGPU-Sim uArch: Shader 5 finished CTA #1 (9415,0), 6 CTAs running
GPGPU-Sim uArch: core:  5, cta: 1 initialized @(9416,0)
GPGPU-Sim PTX: 3500000 instructions simulated : ctaid=(5,11,0) tid=(11,12,0)
GPGPU-Sim uArch: Shader 4 finished CTA #0 (9441,0), 6 CTAs running
GPGPU-Sim uArch: core:  4, cta: 0 initialized @(9442,0)
GPGPU-Sim uArch: cycles simulated: 9500  inst.: 3511696 (ipc=369.7) sim_rate=97547 (inst/sec) elapsed = 0:0:00:36 / Mon Jun  6 20:39:21 2016
GPGPU-Sim uArch: Shader 5 finished CTA #0 (9520,0), 6 CTAs running
GPGPU-Sim uArch: core:  5, cta: 0 initialized @(9521,0)
GPGPU-Sim uArch: Shader 1 finished CTA #1 (9601,0), 6 CTAs running
GPGPU-Sim uArch: core:  1, cta: 1 initialized @(9602,0)
GPGPU-Sim uArch: Shader 9 finished CTA #0 (9605,0), 6 CTAs running
GPGPU-Sim uArch: core:  9, cta: 0 initialized @(9606,0)
GPGPU-Sim PTX: 3600000 instructions simulated : ctaid=(1,5,0) tid=(12,12,0)
GPGPU-Sim uArch: Shader 11 finished CTA #0 (9672,0), 6 CTAs running
GPGPU-Sim uArch: core: 11, cta: 0 initialized @(9673,0)
GPGPU-Sim uArch: Shader 3 finished CTA #1 (9675,0), 6 CTAs running
GPGPU-Sim uArch: core:  3, cta: 1 initialized @(9676,0)
GPGPU-Sim uArch: Shader 7 finished CTA #0 (9779,0), 6 CTAs running
GPGPU-Sim uArch: core:  7, cta: 0 initialized @(9780,0)
GPGPU-Sim PTX: 3700000 instructions simulated : ctaid=(4,9,0) tid=(3,3,0)
GPGPU-Sim uArch: Shader 2 finished CTA #1 (9894,0), 6 CTAs running
GPGPU-Sim uArch: core:  2, cta: 1 initialized @(9895,0)
GPGPU-Sim uArch: Shader 0 finished CTA #1 (9986,0), 6 CTAs running
GPGPU-Sim uArch: core:  0, cta: 1 initialized @(9987,0)
GPGPU-Sim uArch: cycles simulated: 10000  inst.: 3767667 (ipc=376.8) sim_rate=99149 (inst/sec) elapsed = 0:0:00:38 / Mon Jun  6 20:39:23 2016
GPGPU-Sim uArch: Shader 11 finished CTA #1 (10022,0), 6 CTAs running
GPGPU-Sim uArch: core: 11, cta: 1 initialized @(10023,0)
GPGPU-Sim PTX: 3800000 instructions simulated : ctaid=(2,10,0) tid=(2,8,0)
GPGPU-Sim PTX: 3900000 instructions simulated : ctaid=(1,6,0) tid=(6,10,0)
GPGPU-Sim PTX: 4000000 instructions simulated : ctaid=(2,14,0) tid=(11,6,0)
GPGPU-Sim uArch: cycles simulated: 10500  inst.: 3999846 (ipc=380.9) sim_rate=97557 (inst/sec) elapsed = 0:0:00:41 / Mon Jun  6 20:39:26 2016
GPGPU-Sim uArch: Shader 12 finished CTA #1 (10590,0), 6 CTAs running
GPGPU-Sim uArch: core: 12, cta: 1 initialized @(10591,0)
GPGPU-Sim PTX: 4100000 instructions simulated : ctaid=(2,9,0) tid=(9,0,0)
GPGPU-Sim uArch: Shader 14 finished CTA #0 (10719,0), 6 CTAs running
GPGPU-Sim uArch: core: 14, cta: 0 initialized @(10720,0)
GPGPU-Sim uArch: Shader 4 finished CTA #2 (10763,0), 6 CTAs running
GPGPU-Sim uArch: core:  4, cta: 2 initialized @(10764,0)
GPGPU-Sim uArch: Shader 13 finished CTA #0 (10771,0), 6 CTAs running
GPGPU-Sim uArch: core: 13, cta: 0 initialized @(10772,0)
GPGPU-Sim uArch: Shader 10 finished CTA #2 (10845,0), 6 CTAs running
GPGPU-Sim uArch: core: 10, cta: 2 initialized @(10846,0)
GPGPU-Sim PTX: 4200000 instructions simulated : ctaid=(2,13,0) tid=(3,4,0)
GPGPU-Sim uArch: Shader 6 finished CTA #2 (10895,0), 6 CTAs running
GPGPU-Sim uArch: core:  6, cta: 2 initialized @(10896,0)
GPGPU-Sim uArch: cycles simulated: 11000  inst.: 4250692 (ipc=386.4) sim_rate=98853 (inst/sec) elapsed = 0:0:00:43 / Mon Jun  6 20:39:28 2016
GPGPU-Sim PTX: 4300000 instructions simulated : ctaid=(0,12,0) tid=(6,5,0)
GPGPU-Sim uArch: Shader 8 finished CTA #0 (11085,0), 6 CTAs running
GPGPU-Sim uArch: core:  8, cta: 0 initialized @(11086,0)
GPGPU-Sim uArch: Shader 5 finished CTA #2 (11169,0), 6 CTAs running
GPGPU-Sim uArch: core:  5, cta: 2 initialized @(11170,0)
GPGPU-Sim uArch: Shader 14 finished CTA #1 (11234,0), 6 CTAs running
GPGPU-Sim uArch: core: 14, cta: 1 initialized @(11235,0)
GPGPU-Sim PTX: 4400000 instructions simulated : ctaid=(4,17,0) tid=(1,2,0)
GPGPU-Sim uArch: Shader 11 finished CTA #2 (11300,0), 6 CTAs running
GPGPU-Sim uArch: core: 11, cta: 2 initialized @(11301,0)
GPGPU-Sim uArch: Shader 9 finished CTA #1 (11317,0), 6 CTAs running
GPGPU-Sim uArch: core:  9, cta: 1 initialized @(11318,0)
GPGPU-Sim uArch: Shader 2 finished CTA #2 (11330,0), 6 CTAs running
GPGPU-Sim uArch: core:  2, cta: 2 initialized @(11331,0)
GPGPU-Sim uArch: Shader 12 finished CTA #2 (11419,0), 6 CTAs running
GPGPU-Sim uArch: core: 12, cta: 2 initialized @(11420,0)
GPGPU-Sim PTX: 4500000 instructions simulated : ctaid=(2,6,0) tid=(5,8,0)
GPGPU-Sim uArch: cycles simulated: 11500  inst.: 4498061 (ipc=391.1) sim_rate=99956 (inst/sec) elapsed = 0:0:00:45 / Mon Jun  6 20:39:30 2016
GPGPU-Sim uArch: Shader 7 finished CTA #1 (11607,0), 6 CTAs running
GPGPU-Sim uArch: core:  7, cta: 1 initialized @(11608,0)
GPGPU-Sim PTX: 4600000 instructions simulated : ctaid=(2,9,0) tid=(1,4,0)
GPGPU-Sim PTX: 4700000 instructions simulated : ctaid=(5,17,0) tid=(9,0,0)
GPGPU-Sim uArch: cycles simulated: 12000  inst.: 4743811 (ipc=395.3) sim_rate=100932 (inst/sec) elapsed = 0:0:00:47 / Mon Jun  6 20:39:32 2016
GPGPU-Sim PTX: 4800000 instructions simulated : ctaid=(2,13,0) tid=(11,11,0)
GPGPU-Sim uArch: Shader 1 finished CTA #2 (12153,0), 6 CTAs running
GPGPU-Sim uArch: core:  1, cta: 2 initialized @(12154,0)
GPGPU-Sim uArch: Shader 3 finished CTA #2 (12291,0), 6 CTAs running
GPGPU-Sim uArch: Shader 10 finished CTA #3 (12291,0), 6 CTAs running
GPGPU-Sim uArch: core:  3, cta: 2 initialized @(12292,0)
GPGPU-Sim uArch: core: 10, cta: 3 initialized @(12292,0)
GPGPU-Sim PTX: 4900000 instructions simulated : ctaid=(4,12,0) tid=(6,4,0)
GPGPU-Sim uArch: Shader 12 finished CTA #3 (12483,0), 6 CTAs running
GPGPU-Sim uArch: core: 12, cta: 3 initialized @(12484,0)
GPGPU-Sim uArch: cycles simulated: 12500  inst.: 4964214 (ipc=397.1) sim_rate=99284 (inst/sec) elapsed = 0:0:00:50 / Mon Jun  6 20:39:35 2016
GPGPU-Sim PTX: 5000000 instructions simulated : ctaid=(0,20,0) tid=(8,11,0)
GPGPU-Sim uArch: Shader 13 finished CTA #1 (12560,0), 6 CTAs running
GPGPU-Sim uArch: core: 13, cta: 1 initialized @(12561,0)
GPGPU-Sim PTX: 5100000 instructions simulated : ctaid=(0,14,0) tid=(8,8,0)
GPGPU-Sim uArch: Shader 8 finished CTA #1 (12832,0), 6 CTAs running
GPGPU-Sim uArch: core:  8, cta: 1 initialized @(12833,0)
GPGPU-Sim uArch: Shader 0 finished CTA #2 (12921,0), 6 CTAs running
GPGPU-Sim uArch: core:  0, cta: 2 initialized @(12922,0)
GPGPU-Sim PTX: 5200000 instructions simulated : ctaid=(3,13,0) tid=(10,2,0)
GPGPU-Sim uArch: cycles simulated: 13000  inst.: 5195208 (ipc=399.6) sim_rate=99907 (inst/sec) elapsed = 0:0:00:52 / Mon Jun  6 20:39:37 2016
GPGPU-Sim PTX: 5300000 instructions simulated : ctaid=(5,21,0) tid=(2,6,0)
GPGPU-Sim uArch: Shader 10 finished CTA #4 (13149,0), 6 CTAs running
GPGPU-Sim uArch: core: 10, cta: 4 initialized @(13150,0)
GPGPU-Sim uArch: Shader 7 finished CTA #2 (13252,0), 6 CTAs running
GPGPU-Sim uArch: core:  7, cta: 2 initialized @(13253,0)
GPGPU-Sim uArch: Shader 11 finished CTA #3 (13277,0), 6 CTAs running
GPGPU-Sim uArch: core: 11, cta: 3 initialized @(13278,0)
GPGPU-Sim PTX: 5400000 instructions simulated : ctaid=(4,18,0) tid=(8,11,0)
GPGPU-Sim uArch: Shader 14 finished CTA #2 (13431,0), 6 CTAs running
GPGPU-Sim uArch: core: 14, cta: 2 initialized @(13432,0)
GPGPU-Sim uArch: cycles simulated: 13500  inst.: 5453183 (ipc=403.9) sim_rate=100984 (inst/sec) elapsed = 0:0:00:54 / Mon Jun  6 20:39:39 2016
GPGPU-Sim PTX: 5500000 instructions simulated : ctaid=(5,20,0) tid=(6,11,0)
GPGPU-Sim uArch: Shader 12 finished CTA #4 (13585,0), 6 CTAs running
GPGPU-Sim uArch: core: 12, cta: 4 initialized @(13586,0)
GPGPU-Sim uArch: Shader 5 finished CTA #3 (13594,0), 6 CTAs running
GPGPU-Sim uArch: core:  5, cta: 3 initialized @(13595,0)
GPGPU-Sim uArch: Shader 6 finished CTA #3 (13627,0), 6 CTAs running
GPGPU-Sim uArch: core:  6, cta: 3 initialized @(13628,0)
GPGPU-Sim uArch: Shader 11 finished CTA #4 (13639,0), 6 CTAs running
GPGPU-Sim uArch: core: 11, cta: 4 initialized @(13640,0)
GPGPU-Sim PTX: 5600000 instructions simulated : ctaid=(0,23,0) tid=(9,6,0)
GPGPU-Sim uArch: Shader 10 finished CTA #5 (13905,0), 6 CTAs running
GPGPU-Sim uArch: core: 10, cta: 5 initialized @(13906,0)
GPGPU-Sim PTX: 5700000 instructions simulated : ctaid=(3,17,0) tid=(5,3,0)
GPGPU-Sim uArch: cycles simulated: 14000  inst.: 5711671 (ipc=408.0) sim_rate=101994 (inst/sec) elapsed = 0:0:00:56 / Mon Jun  6 20:39:41 2016
GPGPU-Sim PTX: 5800000 instructions simulated : ctaid=(5,15,0) tid=(10,3,0)
GPGPU-Sim uArch: Shader 8 finished CTA #2 (14121,0), 6 CTAs running
GPGPU-Sim uArch: core:  8, cta: 2 initialized @(14122,0)
GPGPU-Sim uArch: Shader 9 finished CTA #2 (14196,0), 6 CTAs running
GPGPU-Sim uArch: core:  9, cta: 2 initialized @(14197,0)
GPGPU-Sim PTX: 5900000 instructions simulated : ctaid=(2,20,0) tid=(1,7,0)
GPGPU-Sim uArch: Shader 4 finished CTA #3 (14366,0), 6 CTAs running
GPGPU-Sim uArch: core:  4, cta: 3 initialized @(14367,0)
GPGPU-Sim uArch: Shader 1 finished CTA #3 (14367,0), 6 CTAs running
GPGPU-Sim uArch: core:  1, cta: 3 initialized @(14368,0)
GPGPU-Sim uArch: Shader 12 finished CTA #5 (14414,0), 6 CTAs running
GPGPU-Sim uArch: core: 12, cta: 5 initialized @(14415,0)
GPGPU-Sim uArch: Shader 2 finished CTA #3 (14443,0), 6 CTAs running
GPGPU-Sim uArch: core:  2, cta: 3 initialized @(14444,0)
GPGPU-Sim PTX: 6000000 instructions simulated : ctaid=(5,18,0) tid=(2,10,0)
GPGPU-Sim uArch: cycles simulated: 14500  inst.: 5982991 (ipc=412.6) sim_rate=103155 (inst/sec) elapsed = 0:0:00:58 / Mon Jun  6 20:39:43 2016
GPGPU-Sim uArch: Shader 3 finished CTA #3 (14550,0), 6 CTAs running
GPGPU-Sim uArch: core:  3, cta: 3 initialized @(14551,0)
GPGPU-Sim uArch: Shader 11 finished CTA #5 (14615,0), 6 CTAs running
GPGPU-Sim uArch: core: 11, cta: 5 initialized @(14616,0)
GPGPU-Sim uArch: Shader 5 finished CTA #4 (14621,0), 6 CTAs running
GPGPU-Sim uArch: core:  5, cta: 4 initialized @(14622,0)
GPGPU-Sim PTX: 6100000 instructions simulated : ctaid=(5,13,0) tid=(9,8,0)
GPGPU-Sim uArch: Shader 6 finished CTA #4 (14845,0), 6 CTAs running
GPGPU-Sim uArch: core:  6, cta: 4 initialized @(14846,0)
GPGPU-Sim PTX: 6200000 instructions simulated : ctaid=(3,19,0) tid=(1,10,0)
GPGPU-Sim uArch: Shader 10 finished CTA #6 (14927,0), 6 CTAs running
GPGPU-Sim uArch: core: 10, cta: 6 initialized @(14928,0)
GPGPU-Sim uArch: cycles simulated: 15000  inst.: 6231616 (ipc=415.4) sim_rate=102157 (inst/sec) elapsed = 0:0:01:01 / Mon Jun  6 20:39:46 2016
GPGPU-Sim uArch: Shader 5 finished CTA #5 (15083,0), 6 CTAs running
GPGPU-Sim uArch: core:  5, cta: 5 initialized @(15084,0)
GPGPU-Sim PTX: 6300000 instructions simulated : ctaid=(3,21,0) tid=(5,5,0)
GPGPU-Sim uArch: Shader 13 finished CTA #2 (15232,0), 6 CTAs running
GPGPU-Sim uArch: Shader 12 finished CTA #6 (15251,0), 6 CTAs running
GPGPU-Sim PTX: 6400000 instructions simulated : ctaid=(5,17,0) tid=(2,1,0)
GPGPU-Sim uArch: Shader 7 finished CTA #3 (15358,0), 6 CTAs running
GPGPU-Sim uArch: Shader 11 finished CTA #6 (15404,0), 6 CTAs running
GPGPU-Sim PTX: 6500000 instructions simulated : ctaid=(4,18,0) tid=(8,2,0)
GPGPU-Sim uArch: cycles simulated: 15500  inst.: 6496383 (ipc=419.1) sim_rate=103117 (inst/sec) elapsed = 0:0:01:03 / Mon Jun  6 20:39:48 2016
GPGPU-Sim uArch: Shader 7 finished CTA #4 (15612,0), 5 CTAs running
GPGPU-Sim PTX: 6600000 instructions simulated : ctaid=(4,12,0) tid=(6,11,0)
GPGPU-Sim uArch: Shader 5 finished CTA #6 (15627,0), 6 CTAs running
GPGPU-Sim uArch: Shader 0 finished CTA #3 (15723,0), 6 CTAs running
GPGPU-Sim PTX: 6700000 instructions simulated : ctaid=(2,13,0) tid=(7,3,0)
GPGPU-Sim uArch: Shader 9 finished CTA #3 (15957,0), 6 CTAs running
GPGPU-Sim PTX: 6800000 instructions simulated : ctaid=(3,23,0) tid=(0,2,0)
GPGPU-Sim uArch: cycles simulated: 16000  inst.: 6781458 (ipc=423.8) sim_rate=104330 (inst/sec) elapsed = 0:0:01:05 / Mon Jun  6 20:39:50 2016
GPGPU-Sim PTX: 6900000 instructions simulated : ctaid=(0,24,0) tid=(1,12,0)
GPGPU-Sim uArch: Shader 9 finished CTA #4 (16203,0), 5 CTAs running
GPGPU-Sim uArch: Shader 7 finished CTA #5 (16236,0), 4 CTAs running
GPGPU-Sim uArch: Shader 2 finished CTA #4 (16292,0), 6 CTAs running
GPGPU-Sim PTX: 7000000 instructions simulated : ctaid=(3,22,0) tid=(8,12,0)
GPGPU-Sim uArch: Shader 6 finished CTA #5 (16331,0), 6 CTAs running
GPGPU-Sim uArch: Shader 3 finished CTA #4 (16423,0), 6 CTAs running
GPGPU-Sim uArch: Shader 1 finished CTA #4 (16449,0), 6 CTAs running
GPGPU-Sim PTX: 7100000 instructions simulated : ctaid=(0,21,0) tid=(11,11,0)
GPGPU-Sim uArch: cycles simulated: 16500  inst.: 7093248 (ipc=429.9) sim_rate=105869 (inst/sec) elapsed = 0:0:01:07 / Mon Jun  6 20:39:52 2016
GPGPU-Sim uArch: Shader 5 finished CTA #1 (16514,0), 5 CTAs running
GPGPU-Sim uArch: Shader 10 finished CTA #0 (16547,0), 6 CTAs running
GPGPU-Sim uArch: Shader 8 finished CTA #3 (16593,0), 6 CTAs running
GPGPU-Sim PTX: 7200000 instructions simulated : ctaid=(4,25,0) tid=(0,6,0)
GPGPU-Sim uArch: Shader 11 finished CTA #0 (16624,0), 5 CTAs running
GPGPU-Sim uArch: Shader 7 finished CTA #6 (16759,0), 3 CTAs running
GPGPU-Sim PTX: 7300000 instructions simulated : ctaid=(4,14,0) tid=(6,10,0)
GPGPU-Sim uArch: Shader 12 finished CTA #0 (16790,0), 5 CTAs running
GPGPU-Sim uArch: Shader 4 finished CTA #4 (16796,0), 6 CTAs running
GPGPU-Sim uArch: Shader 3 finished CTA #5 (16820,0), 5 CTAs running
GPGPU-Sim PTX: 7400000 instructions simulated : ctaid=(3,14,0) tid=(8,4,0)
GPGPU-Sim uArch: Shader 14 finished CTA #3 (16937,0), 6 CTAs running
GPGPU-Sim uArch: cycles simulated: 17000  inst.: 7414952 (ipc=436.2) sim_rate=105927 (inst/sec) elapsed = 0:0:01:10 / Mon Jun  6 20:39:55 2016
GPGPU-Sim uArch: Shader 4 finished CTA #5 (17030,0), 5 CTAs running
GPGPU-Sim uArch: Shader 1 finished CTA #5 (17056,0), 5 CTAs running
GPGPU-Sim uArch: Shader 2 finished CTA #5 (17068,0), 5 CTAs running
GPGPU-Sim PTX: 7500000 instructions simulated : ctaid=(1,12,0) tid=(9,2,0)
GPGPU-Sim uArch: Shader 0 finished CTA #4 (17086,0), 5 CTAs running
GPGPU-Sim uArch: Shader 9 finished CTA #5 (17140,0), 4 CTAs running
GPGPU-Sim uArch: Shader 13 finished CTA #3 (17200,0), 5 CTAs running
GPGPU-Sim uArch: Shader 6 finished CTA #6 (17226,0), 5 CTAs running
GPGPU-Sim PTX: 7600000 instructions simulated : ctaid=(1,17,0) tid=(8,9,0)
GPGPU-Sim uArch: Shader 8 finished CTA #4 (17264,0), 5 CTAs running
GPGPU-Sim uArch: Shader 14 finished CTA #4 (17371,0), 5 CTAs running
GPGPU-Sim PTX: 7700000 instructions simulated : ctaid=(5,25,0) tid=(4,3,0)
GPGPU-Sim uArch: cycles simulated: 17500  inst.: 7732943 (ipc=441.9) sim_rate=107401 (inst/sec) elapsed = 0:0:01:12 / Mon Jun  6 20:39:57 2016
GPGPU-Sim uArch: Shader 10 finished CTA #1 (17515,0), 5 CTAs running
GPGPU-Sim PTX: 7800000 instructions simulated : ctaid=(3,14,0) tid=(7,12,0)
GPGPU-Sim uArch: Shader 13 finished CTA #4 (17602,0), 4 CTAs running
GPGPU-Sim uArch: Shader 5 finished CTA #0 (17633,0), 4 CTAs running
GPGPU-Sim uArch: Shader 0 finished CTA #5 (17713,0), 4 CTAs running
GPGPU-Sim PTX: 7900000 instructions simulated : ctaid=(5,24,0) tid=(6,9,0)
GPGPU-Sim uArch: Shader 12 finished CTA #1 (17873,0), 4 CTAs running
GPGPU-Sim PTX: 8000000 instructions simulated : ctaid=(5,25,0) tid=(2,1,0)
GPGPU-Sim uArch: Shader 6 finished CTA #0 (17943,0), 4 CTAs running
GPGPU-Sim uArch: Shader 9 finished CTA #6 (17977,0), 3 CTAs running
GPGPU-Sim uArch: Shader 7 finished CTA #0 (17989,0), 2 CTAs running
GPGPU-Sim uArch: Shader 3 finished CTA #6 (17998,0), 4 CTAs running
GPGPU-Sim uArch: cycles simulated: 18000  inst.: 8037873 (ipc=446.5) sim_rate=107171 (inst/sec) elapsed = 0:0:01:15 / Mon Jun  6 20:40:00 2016
GPGPU-Sim uArch: Shader 1 finished CTA #6 (18025,0), 4 CTAs running
GPGPU-Sim PTX: 8100000 instructions simulated : ctaid=(2,23,0) tid=(10,4,0)
GPGPU-Sim uArch: Shader 11 finished CTA #1 (18153,0), 4 CTAs running
GPGPU-Sim PTX: 8200000 instructions simulated : ctaid=(5,27,0) tid=(8,1,0)
GPGPU-Sim uArch: Shader 0 finished CTA #6 (18219,0), 3 CTAs running
GPGPU-Sim uArch: Shader 14 finished CTA #5 (18335,0), 4 CTAs running
GPGPU-Sim uArch: Shader 2 finished CTA #6 (18350,0), 4 CTAs running
GPGPU-Sim uArch: Shader 1 finished CTA #0 (18378,0), 3 CTAs running
GPGPU-Sim PTX: 8300000 instructions simulated : ctaid=(0,23,0) tid=(6,8,0)
GPGPU-Sim uArch: Shader 8 finished CTA #5 (18453,0), 4 CTAs running
GPGPU-Sim uArch: Shader 4 finished CTA #6 (18472,0), 4 CTAs running
GPGPU-Sim uArch: Shader 4 finished CTA #1 (18491,0), 3 CTAs running
GPGPU-Sim uArch: cycles simulated: 18500  inst.: 8317321 (ipc=449.6) sim_rate=108017 (inst/sec) elapsed = 0:0:01:17 / Mon Jun  6 20:40:02 2016
GPGPU-Sim uArch: Shader 0 finished CTA #0 (18571,0), 2 CTAs running
GPGPU-Sim PTX: 8400000 instructions simulated : ctaid=(1,24,0) tid=(4,3,0)
GPGPU-Sim uArch: Shader 6 finished CTA #1 (18609,0), 3 CTAs running
GPGPU-Sim uArch: Shader 13 finished CTA #5 (18611,0), 3 CTAs running
GPGPU-Sim uArch: Shader 14 finished CTA #6 (18654,0), 3 CTAs running
GPGPU-Sim uArch: Shader 3 finished CTA #0 (18686,0), 3 CTAs running
GPGPU-Sim uArch: Shader 8 finished CTA #6 (18698,0), 3 CTAs running
GPGPU-Sim uArch: Shader 11 finished CTA #2 (18729,0), 3 CTAs running
GPGPU-Sim PTX: 8500000 instructions simulated : ctaid=(3,27,0) tid=(5,3,0)
GPGPU-Sim uArch: Shader 5 finished CTA #2 (18810,0), 3 CTAs running
GPGPU-Sim uArch: Shader 10 finished CTA #2 (18813,0), 4 CTAs running
GPGPU-Sim uArch: Shader 7 finished CTA #1 (18838,0), 1 CTAs running
GPGPU-Sim uArch: Shader 12 finished CTA #2 (18869,0), 3 CTAs running
GPGPU-Sim uArch: cycles simulated: 19000  inst.: 8558102 (ipc=450.4) sim_rate=108330 (inst/sec) elapsed = 0:0:01:19 / Mon Jun  6 20:40:04 2016
GPGPU-Sim PTX: 8600000 instructions simulated : ctaid=(4,20,0) tid=(12,9,0)
GPGPU-Sim uArch: Shader 3 finished CTA #1 (19044,0), 2 CTAs running
GPGPU-Sim uArch: Shader 9 finished CTA #0 (19046,0), 2 CTAs running
GPGPU-Sim uArch: Shader 2 finished CTA #0 (19060,0), 3 CTAs running
GPGPU-Sim uArch: Shader 4 finished CTA #0 (19119,0), 2 CTAs running
GPGPU-Sim uArch: Shader 1 finished CTA #1 (19201,0), 2 CTAs running
GPGPU-Sim PTX: 8700000 instructions simulated : ctaid=(2,27,0) tid=(10,10,0)
GPGPU-Sim uArch: Shader 13 finished CTA #6 (19393,0), 2 CTAs running
GPGPU-Sim uArch: cycles simulated: 19500  inst.: 8743423 (ipc=448.4) sim_rate=107943 (inst/sec) elapsed = 0:0:01:21 / Mon Jun  6 20:40:06 2016
GPGPU-Sim uArch: Shader 8 finished CTA #0 (19524,0), 2 CTAs running
GPGPU-Sim PTX: 8800000 instructions simulated : ctaid=(3,21,0) tid=(5,4,0)
GPGPU-Sim uArch: Shader 0 finished CTA #1 (19561,0), 1 CTAs running
GPGPU-Sim uArch: Shader 10 finished CTA #3 (19649,0), 3 CTAs running
GPGPU-Sim uArch: Shader 2 finished CTA #1 (19652,0), 2 CTAs running
GPGPU-Sim uArch: Shader 12 finished CTA #3 (19685,0), 2 CTAs running
GPGPU-Sim uArch: Shader 1 finished CTA #2 (19687,0), 1 CTAs running
GPGPU-Sim uArch: Shader 14 finished CTA #0 (19766,0), 2 CTAs running
GPGPU-Sim uArch: Shader 6 finished CTA #2 (19769,0), 2 CTAs running
GPGPU-Sim uArch: Shader 7 finished CTA #2 (19774,0), 0 CTAs running
GPGPU-Sim uArch: Shader 7 empty (release kernel 1 '_Z17executeFirstLayerPfS_S_').
GPGPU-Sim uArch: Shader 11 finished CTA #3 (19822,0), 2 CTAs running
GPGPU-Sim uArch: Shader 4 finished CTA #2 (19825,0), 1 CTAs running
GPGPU-Sim uArch: Shader 5 finished CTA #3 (19931,0), 2 CTAs running
GPGPU-Sim PTX: 8900000 instructions simulated : ctaid=(5,25,0) tid=(10,7,0)
GPGPU-Sim uArch: cycles simulated: 20000  inst.: 8870853 (ipc=443.5) sim_rate=108181 (inst/sec) elapsed = 0:0:01:22 / Mon Jun  6 20:40:07 2016
GPGPU-Sim uArch: Shader 3 finished CTA #2 (20084,0), 1 CTAs running
GPGPU-Sim uArch: Shader 9 finished CTA #1 (20090,0), 1 CTAs running
GPGPU-Sim uArch: Shader 13 finished CTA #0 (20381,0), 1 CTAs running
GPGPU-Sim uArch: Shader 2 finished CTA #2 (20387,0), 1 CTAs running
GPGPU-Sim uArch: Shader 5 finished CTA #4 (20435,0), 1 CTAs running
GPGPU-Sim uArch: Shader 4 finished CTA #3 (20461,0), 0 CTAs running
GPGPU-Sim uArch: Shader 4 empty (release kernel 1 '_Z17executeFirstLayerPfS_S_').
GPGPU-Sim uArch: Shader 6 finished CTA #3 (20495,0), 1 CTAs running
GPGPU-Sim uArch: cycles simulated: 20500  inst.: 8946464 (ipc=436.4) sim_rate=107788 (inst/sec) elapsed = 0:0:01:23 / Mon Jun  6 20:40:08 2016
GPGPU-Sim uArch: Shader 8 finished CTA #1 (20552,0), 1 CTAs running
GPGPU-Sim uArch: Shader 0 finished CTA #2 (20557,0), 0 CTAs running
GPGPU-Sim uArch: Shader 0 empty (release kernel 1 '_Z17executeFirstLayerPfS_S_').
GPGPU-Sim uArch: Shader 1 finished CTA #3 (20569,0), 0 CTAs running
GPGPU-Sim uArch: Shader 1 empty (release kernel 1 '_Z17executeFirstLayerPfS_S_').
GPGPU-Sim uArch: Shader 12 finished CTA #4 (20575,0), 1 CTAs running
GPGPU-Sim PTX: 9000000 instructions simulated : ctaid=(5,25,0) tid=(4,9,0)
GPGPU-Sim uArch: Shader 9 finished CTA #2 (20706,0), 0 CTAs running
GPGPU-Sim uArch: Shader 9 empty (release kernel 1 '_Z17executeFirstLayerPfS_S_').
GPGPU-Sim uArch: Shader 14 finished CTA #1 (20775,0), 1 CTAs running
GPGPU-Sim uArch: Shader 10 finished CTA #4 (20794,0), 2 CTAs running
GPGPU-Sim uArch: Shader 11 finished CTA #4 (20842,0), 1 CTAs running
GPGPU-Sim uArch: Shader 3 finished CTA #3 (20844,0), 0 CTAs running
GPGPU-Sim uArch: Shader 3 empty (release kernel 1 '_Z17executeFirstLayerPfS_S_').
GPGPU-Sim uArch: cycles simulated: 21000  inst.: 8986649 (ipc=427.9) sim_rate=106983 (inst/sec) elapsed = 0:0:01:24 / Mon Jun  6 20:40:09 2016
GPGPU-Sim uArch: Shader 13 finished CTA #1 (21257,0), 0 CTAs running
GPGPU-Sim uArch: Shader 13 empty (release kernel 1 '_Z17executeFirstLayerPfS_S_').
GPGPU-Sim uArch: Shader 2 finished CTA #3 (21447,0), 0 CTAs running
GPGPU-Sim uArch: Shader 2 empty (release kernel 1 '_Z17executeFirstLayerPfS_S_').
GPGPU-Sim uArch: Shader 14 finished CTA #2 (21451,0), 0 CTAs running
GPGPU-Sim uArch: Shader 14 empty (release kernel 1 '_Z17executeFirstLayerPfS_S_').
GPGPU-Sim uArch: Shader 6 finished CTA #4 (21464,0), 0 CTAs running
GPGPU-Sim uArch: Shader 6 empty (release kernel 1 '_Z17executeFirstLayerPfS_S_').
GPGPU-Sim uArch: Shader 12 finished CTA #5 (21474,0), 0 CTAs running
GPGPU-Sim uArch: Shader 12 empty (release kernel 1 '_Z17executeFirstLayerPfS_S_').
GPGPU-Sim uArch: Shader 11 finished CTA #5 (21491,0), 0 CTAs running
GPGPU-Sim uArch: Shader 11 empty (release kernel 1 '_Z17executeFirstLayerPfS_S_').
GPGPU-Sim uArch: Shader 5 finished CTA #5 (21525,0), 0 CTAs running
GPGPU-Sim uArch: Shader 5 empty (release kernel 1 '_Z17executeFirstLayerPfS_S_').
GPGPU-Sim uArch: Shader 8 finished CTA #2 (21557,0), 0 CTAs running
GPGPU-Sim uArch: Shader 8 empty (release kernel 1 '_Z17executeFirstLayerPfS_S_').
GPGPU-Sim uArch: Shader 10 finished CTA #5 (21601,0), 1 CTAs running
GPGPU-Sim uArch: cycles simulated: 22000  inst.: 9003005 (ipc=409.2) sim_rate=105917 (inst/sec) elapsed = 0:0:01:25 / Mon Jun  6 20:40:10 2016
GPGPU-Sim uArch: Shader 10 finished CTA #6 (22469,0), 0 CTAs running
GPGPU-Sim uArch: Shader 10 empty (release kernel 1 '_Z17executeFirstLayerPfS_S_').
GPGPU-Sim uArch: GPU detected kernel '_Z17executeFirstLayerPfS_S_' finished on shader 10.
kernel_name = _Z17executeFirstLayerPfS_S_ 
kernel_launch_uid = 1 
gpu_sim_cycle = 22470
gpu_sim_insn = 9004143
gpu_ipc =     400.7184
gpu_tot_sim_cycle = 22470
gpu_tot_sim_insn = 9004143
gpu_tot_ipc =     400.7184
gpu_tot_issued_cta = 0
gpu_stall_dramfull = 18894
gpu_stall_icnt2sh    = 80514
gpu_total_sim_rate=105931

========= Core cache stats =========
L1I_cache:
	L1I_total_cache_accesses = 174155
	L1I_total_cache_misses = 1927
	L1I_total_cache_miss_rate = 0.0111
	L1I_total_cache_pending_hits = 0
	L1I_total_cache_reservation_fails = 9394
L1D_cache:
	L1D_cache_core[0]: Access = 8592, Miss = 985, Miss_rate = 0.115, Pending_hits = 375, Reservation_fails = 5846
	L1D_cache_core[1]: Access = 9343, Miss = 1155, Miss_rate = 0.124, Pending_hits = 229, Reservation_fails = 4824
	L1D_cache_core[2]: Access = 9361, Miss = 1364, Miss_rate = 0.146, Pending_hits = 214, Reservation_fails = 5523
	L1D_cache_core[3]: Access = 9373, Miss = 1166, Miss_rate = 0.124, Pending_hits = 150, Reservation_fails = 5256
	L1D_cache_core[4]: Access = 9357, Miss = 1299, Miss_rate = 0.139, Pending_hits = 143, Reservation_fails = 4895
	L1D_cache_core[5]: Access = 11057, Miss = 834, Miss_rate = 0.075, Pending_hits = 107, Reservation_fails = 3433
	L1D_cache_core[6]: Access = 10240, Miss = 1175, Miss_rate = 0.115, Pending_hits = 169, Reservation_fails = 4376
	L1D_cache_core[7]: Access = 8542, Miss = 1015, Miss_rate = 0.119, Pending_hits = 193, Reservation_fails = 5141
	L1D_cache_core[8]: Access = 8505, Miss = 1310, Miss_rate = 0.154, Pending_hits = 333, Reservation_fails = 6827
	L1D_cache_core[9]: Access = 8469, Miss = 1015, Miss_rate = 0.120, Pending_hits = 247, Reservation_fails = 6278
	L1D_cache_core[10]: Access = 11951, Miss = 824, Miss_rate = 0.069, Pending_hits = 122, Reservation_fails = 3187
	L1D_cache_core[11]: Access = 11103, Miss = 1018, Miss_rate = 0.092, Pending_hits = 140, Reservation_fails = 3574
	L1D_cache_core[12]: Access = 11050, Miss = 838, Miss_rate = 0.076, Pending_hits = 164, Reservation_fails = 3508
	L1D_cache_core[13]: Access = 7720, Miss = 1025, Miss_rate = 0.133, Pending_hits = 322, Reservation_fails = 7768
	L1D_cache_core[14]: Access = 8539, Miss = 1129, Miss_rate = 0.132, Pending_hits = 325, Reservation_fails = 6928
	L1D_total_cache_accesses = 143202
	L1D_total_cache_misses = 16152
	L1D_total_cache_miss_rate = 0.1128
	L1D_total_cache_pending_hits = 3233
	L1D_total_cache_reservation_fails = 77364
	L1D_cache_data_port_util = 0.391
	L1D_cache_fill_port_util = 0.045
L1C_cache:
	L1C_total_cache_accesses = 28224
	L1C_total_cache_misses = 996
	L1C_total_cache_miss_rate = 0.0353
	L1C_total_cache_pending_hits = 0
	L1C_total_cache_reservation_fails = 3684
L1T_cache:
	L1T_total_cache_accesses = 0
	L1T_total_cache_misses = 0
	L1T_total_cache_pending_hits = 0
	L1T_total_cache_reservation_fails = 0

Total_core_cache_stats:
	Total_core_cache_stats_breakdown[GLOBAL_ACC_R][HIT] = 123817
	Total_core_cache_stats_breakdown[GLOBAL_ACC_R][HIT_RESERVED] = 3233
	Total_core_cache_stats_breakdown[GLOBAL_ACC_R][MISS] = 14292
	Total_core_cache_stats_breakdown[GLOBAL_ACC_R][RESERVATION_FAIL] = 76464
	Total_core_cache_stats_breakdown[CONST_ACC_R][HIT] = 27228
	Total_core_cache_stats_breakdown[CONST_ACC_R][MISS] = 996
	Total_core_cache_stats_breakdown[CONST_ACC_R][RESERVATION_FAIL] = 3684
	Total_core_cache_stats_breakdown[GLOBAL_ACC_W][MISS] = 1860
	Total_core_cache_stats_breakdown[GLOBAL_ACC_W][RESERVATION_FAIL] = 900
	Total_core_cache_stats_breakdown[INST_ACC_R][HIT] = 172228
	Total_core_cache_stats_breakdown[INST_ACC_R][MISS] = 1927
	Total_core_cache_stats_breakdown[INST_ACC_R][RESERVATION_FAIL] = 9394
Shader 0 warp_id issue ditsribution:
warp_id:
0, 1, 2, 3, 4, 5, 6, 7, 8, 9, 10, 11, 12, 13, 14, 15, 16, 17, 18, 19, 20, 21, 22, 23, 24, 25, 26, 27, 28, 29, 30, 31, 32, 33, 34, 35, 36, 37, 38, 39, 40, 41, 
distro:
676, 676, 676, 676, 676, 653, 663, 676, 676, 676, 676, 640, 676, 676, 676, 676, 676, 676, 315, 338, 338, 338, 338, 338, 338, 338, 338, 338, 338, 338, 338, 338, 338, 338, 338, 315, 338, 338, 338, 338, 338, 338, 
gpgpu_n_tot_thrd_icount = 10805632
gpgpu_n_tot_w_icount = 337676
gpgpu_n_stall_shd_mem = 171834
gpgpu_n_mem_read_local = 0
gpgpu_n_mem_write_local = 0
gpgpu_n_mem_read_global = 14292
gpgpu_n_mem_write_global = 1860
gpgpu_n_mem_texture = 0
gpgpu_n_mem_const = 45
gpgpu_n_load_insn  = 1447992
gpgpu_n_store_insn = 28392
gpgpu_n_shmem_insn = 0
gpgpu_n_tex_insn = 0
gpgpu_n_const_mem_insn = 709800
gpgpu_n_param_mem_insn = 85176
gpgpu_n_shmem_bkconflict = 0
gpgpu_n_cache_bkconflict = 0
gpgpu_n_intrawarp_mshr_merge = 0
gpgpu_n_cmem_portconflict = 3684
gpgpu_stall_shd_mem[c_mem][bk_conf] = 3684
gpgpu_stall_shd_mem[c_mem][mshr_rc] = 0
gpgpu_stall_shd_mem[c_mem][icnt_rc] = 0
gpgpu_stall_shd_mem[c_mem][data_port_stall] = 0
gpgpu_stall_shd_mem[t_mem][mshr_rc] = 0
gpgpu_stall_shd_mem[t_mem][icnt_rc] = 0
gpgpu_stall_shd_mem[t_mem][data_port_stall] = 0
gpgpu_stall_shd_mem[s_mem][bk_conf] = 0
gpgpu_stall_shd_mem[gl_mem][bk_conf] = 0
gpgpu_stall_shd_mem[gl_mem][coal_stall] = 168150
gpgpu_stall_shd_mem[gl_mem][data_port_stall] = 0
gpgpu_stall_shd_mem[g_mem_ld][mshr_rc] = 0
gpgpu_stall_shd_mem[g_mem_ld][icnt_rc] = 0
gpgpu_stall_shd_mem[g_mem_ld][wb_icnt_rc] = 0
gpgpu_stall_shd_mem[g_mem_ld][wb_rsrv_fail] = 0
gpgpu_stall_shd_mem[g_mem_st][mshr_rc] = 0
gpgpu_stall_shd_mem[g_mem_st][icnt_rc] = 0
gpgpu_stall_shd_mem[g_mem_st][wb_icnt_rc] = 0
gpgpu_stall_shd_mem[g_mem_st][wb_rsrv_fail] = 0
gpgpu_stall_shd_mem[l_mem_ld][mshr_rc] = 0
gpgpu_stall_shd_mem[l_mem_ld][icnt_rc] = 0
gpgpu_stall_shd_mem[l_mem_ld][wb_icnt_rc] = 0
gpgpu_stall_shd_mem[l_mem_ld][wb_rsrv_fail] = 0
gpgpu_stall_shd_mem[l_mem_st][mshr_rc] = 0
gpgpu_stall_shd_mem[l_mem_st][icnt_rc] = 0
gpgpu_stall_shd_mem[l_mem_ld][wb_icnt_rc] = 0
gpgpu_stall_shd_mem[l_mem_ld][wb_rsrv_fail] = 0
gpu_reg_bank_conflict_stalls = 0
Warp Occupancy Distribution:
Stall:216239	W0_Idle:40056	W0_Scoreboard:40151	W1:1309	W2:1372	W3:1299	W4:1276	W5:1530	W6:1751	W7:1668	W8:1523	W9:53701	W10:985	W11:715	W12:794	W13:878	W14:1056	W15:806	W16:756	W17:706	W18:816	W19:778	W20:574	W21:545	W22:635	W23:933	W24:907	W25:939	W26:1174	W27:990	W28:956	W29:852	W30:593	W31:653	W32:254206
traffic_breakdown_coretomem[CONST_ACC_R] = 360 {8:45,}
traffic_breakdown_coretomem[GLOBAL_ACC_R] = 114336 {8:14292,}
traffic_breakdown_coretomem[GLOBAL_ACC_W] = 172800 {40:499,72:504,136:857,}
traffic_breakdown_coretomem[INST_ACC_R] = 1080 {8:135,}
traffic_breakdown_memtocore[CONST_ACC_R] = 3240 {72:45,}
traffic_breakdown_memtocore[GLOBAL_ACC_R] = 1943712 {136:14292,}
traffic_breakdown_memtocore[GLOBAL_ACC_W] = 14880 {8:1860,}
traffic_breakdown_memtocore[INST_ACC_R] = 18360 {136:135,}
maxmrqlatency = 120 
maxdqlatency = 0 
maxmflatency = 805 
averagemflatency = 242 
max_icnt2mem_latency = 356 
max_icnt2sh_latency = 22469 
mrq_lat_table:1414 	385 	171 	238 	253 	107 	53 	0 	0 	0 	0 	0 	0 	0 	0 	0 	0 	0 	0 	0 	0 	0 	0 	0 	0 	0 	0 	0 	0 	0 	0 	0 	
dq_lat_table:0 	0 	0 	0 	0 	0 	0 	0 	0 	0 	0 	0 	0 	0 	0 	0 	0 	0 	0 	0 	0 	0 	0 	0 	0 	0 	0 	0 	0 	0 	0 	0 	
mf_lat_table:0 	0 	0 	0 	0 	0 	0 	10202 	5727 	268 	0 	0 	0 	0 	0 	0 	0 	0 	0 	0 	0 	0 	0 	0 	0 	0 	0 	0 	0 	0 	0 	0 	
icnt2mem_lat_table:0 	0 	0 	12147 	1845 	868 	858 	579 	35 	0 	0 	0 	0 	0 	0 	0 	0 	0 	0 	0 	0 	0 	0 	0 	
icnt2sh_lat_table:0 	0 	0 	1971 	7413 	4684 	269 	0 	0 	0 	0 	0 	113 	985 	762 	0 	0 	0 	0 	0 	0 	0 	0 	0 	
mf_lat_pw_table:0 	0 	0 	0 	0 	0 	0 	33 	9 	0 	0 	0 	0 	0 	0 	0 	0 	0 	0 	0 	0 	0 	0 	0 	0 	0 	0 	0 	0 	0 	0 	0 	
maximum concurrent accesses to same row:
dram[0]:         1         0         0         0         0         0         0         0         0         0         0         0         0         0         0         0 
dram[1]:         1         0         0         0         0         0         0         0         0         0         0         0         0         0         0         0 
dram[2]:         0         0         0         0         0         0         0         0         0         0         0         0         0         0         0         0 
dram[3]:         0         0         0         0         0         0         0         0         0         0         0         0         0         0         0         0 
dram[4]:         0         0         0         0         0         0         0         0         0         0         0         0         0         0         0         0 
dram[5]:         0         0         0         0         0         0         0         0         0         0         0         0         0         0         0         0 
maximum service time to same row:
dram[0]:       605         0         0         0      2176      2135      2107      2113      7869       850      7834      8007     14107     14913         0         0 
dram[1]:      1776         0         0         0      2159      2179      2105      2104      7919      7796      7894      8415     14663     14910         0         0 
dram[2]:      3522         0         0         0      2153      2169      2088      2097      7943      7779      8590      8025     15762     15952         0         0 
dram[3]:      6538         0         0         0      2147      2161      2087      2091      8009      7775      8003      9131     15177     14387         0         0 
dram[4]:      7360         0         0         0      2159      2165      2125      2091       838      7785      8075      8757     15243     14575         0         0 
dram[5]:         0         0         0         0      2144      2163      2116      2113       838      7857      7932      8104     15232     14569         0         0 
average row accesses per activate:
dram[0]:  1.000000      -nan      -nan      -nan 10.000000 10.000000 32.000000 32.000000 52.000000 47.000000 67.000000 65.000000 61.000000 60.000000      -nan      -nan 
dram[1]:  3.000000      -nan      -nan      -nan 10.000000 10.000000 32.000000 32.000000 50.000000 51.000000 65.000000 64.000000 61.000000 57.000000      -nan      -nan 
dram[2]:  2.000000      -nan      -nan      -nan 10.000000 12.000000 32.000000 32.000000 48.000000 56.000000 65.000000 64.000000 61.000000 58.000000      -nan      -nan 
dram[3]:  2.000000      -nan      -nan      -nan 10.000000 12.000000 32.000000 32.000000 48.000000 54.000000 65.000000 67.000000 61.000000 57.000000      -nan      -nan 
dram[4]:  1.000000      -nan      -nan      -nan 10.000000 12.000000 32.000000 32.000000 50.000000 54.000000 65.000000 65.000000 60.000000 56.000000      -nan      -nan 
dram[5]:      -nan      -nan      -nan      -nan 10.000000 12.000000 32.000000 32.000000 45.000000 52.000000 65.000000 65.000000 60.000000 57.000000      -nan      -nan 
average row locality = 2621/67 = 39.119404
number of total memory accesses made:
dram[0]:         0         0         0         0         0         0         0         0         0         0         0         0         0         0         0         0 
dram[1]:         0         0         0         0         0         0         0         0         0         0         0         0         0         0         0         0 
dram[2]:         0         0         0         0         0         0         0         0         0         0         0         0         0         0         0         0 
dram[3]:         0         0         0         0         0         0         0         0         0         0         0         0         0         0         0         0 
dram[4]:         0         0         0         0         0         0         0         0         0         0         0         0         0         0         0         0 
dram[5]:         0         0         0         0         0         0         0         0         0         0         0         0         0         0         0         0 
total accesses: 0
min_bank_accesses = 0!
min_chip_accesses = 0!
number of total read accesses:
dram[0]:         3         0         0         0        10        10        32        32        32        31        32        32        30        30         0         0 
dram[1]:         3         0         0         0        10        10        32        32        32        32        32        32        30        28         0         0 
dram[2]:         2         0         0         0        10        12        32        32        32        32        32        32        30        28         0         0 
dram[3]:         2         0         0         0        10        12        32        32        32        32        32        32        30        28         0         0 
dram[4]:         1         0         0         0        10        12        32        32        32        32        32        32        30        28         0         0 
dram[5]:         0         0         0         0        10        12        32        32        32        32        32        32        30        28         0         0 
total reads: 1640
min_bank_accesses = 0!
chip skew: 274/272 = 1.01
number of total write accesses:
dram[0]:         0         0         0         0         0         0         0         0        20        16        35        33        31        30         0         0 
dram[1]:         0         0         0         0         0         0         0         0        18        19        33        32        31        29         0         0 
dram[2]:         0         0         0         0         0         0         0         0        16        24        33        32        31        30         0         0 
dram[3]:         0         0         0         0         0         0         0         0        16        22        33        35        31        29         0         0 
dram[4]:         0         0         0         0         0         0         0         0        18        22        33        33        30        28         0         0 
dram[5]:         0         0         0         0         0         0         0         0        13        20        33        33        30        29         0         0 
total reads: 981
min_bank_accesses = 0!
chip skew: 166/158 = 1.05
average mf latency per bank:
dram[0]:       1300    none      none      none        4472      4204      5997      6146       853      1248       238       229       211       207    none      none  
dram[1]:       2007    none      none      none        4701      2845      5877      5662       810       868       246       242       208       208    none      none  
dram[2]:          0    none      none      none        4882      4163      5949      6767       839       884       246       247       210       205    none      none  
dram[3]:          0    none      none      none        3592      5030      5524      6184       785       787       245       220       212       203    none      none  
dram[4]:          0    none      none      none        3629      4916      8200      5831      2150       789       361       234       225       206    none      none  
dram[5]:     none      none      none      none        3756      3105      7466      5274      2287       642       301       232       241       199    none      none  
maximum mf latency per bank:
dram[0]:        278         0         0         0       684       697       627       737       415       519       398       491       351       316         0         0
dram[1]:        273         0         0         0       586       454       553       492       589       486       551       388       282       336         0         0
dram[2]:          0         0         0         0       659       521       561       621       546       485       618       430       304       302         0         0
dram[3]:          0         0         0         0       613       661       552       706       401       581       474       400       333       302         0         0
dram[4]:          0         0         0         0       601       805       518       645       518       479       571       369       461       288         0         0
dram[5]:          0         0         0         0       544       555       564       552       530       430       478       395       496       286         0         0

Number of Memory Banks Accessed per Memory Operation per Warp (from 0):
0	0	0	0	0	0	0	0	0	0	0	0	0	0	0	0	0	0	0	0	0	0	0	0	0	0	0	0	0	0	0	0	0	0	0	0	0	0	0	0	0	0	0	0	0	0	0	0	0	0	0	0	0	0	0	0	0	0	0	0	0	0	0	0	0	0	0	0	0	0	0	0	0	0	0	0	0	0	0	0	0	0	0	0	0	0	0	0	0	0	0	0	0	0	0	0	
Average # of Memory Banks Accessed per Memory Operation per Warp=-nan

position of mrq chosen
0	0	0	0	0	0	0	0	0	0	0	0	0	0	0	0	

average position of mrq chosen = -nan
Memory Partition 0: 
Cache L2_bank_000:
MSHR contents

Cache L2_bank_001:
MSHR contents

In Dram Latency Queue (total = 0): 
DRAM[0]: 16 bks, busW=4 BL=8 CL=12, tRRD=2 tCCD=6, tRCD=12 tRAS=28 tRP=12 tRC=40
n_cmd=29660 n_nop=28847 n_act=13 n_pre=2 n_req=439 n_rd=548 n_write=250 bw_util=0.05381
n_activity=5409 dram_eff=0.2951
bk0: 6a 29589i bk1: 0a 29659i bk2: 0a 29663i bk3: 0a 29664i bk4: 20a 29605i bk5: 20a 29583i bk6: 64a 29417i bk7: 64a 29315i bk8: 64a 29214i bk9: 62a 29260i bk10: 64a 28912i bk11: 64a 28894i bk12: 60a 28992i bk13: 60a 29025i bk14: 0a 29657i bk15: 0a 29661i 
dram_util_bins: 0 0 0 0 0 0 0 0 0 0
dram_eff_bins: 0 0 0 0 0 0 0 0 0 0
mrqq: max=11 avg=0.12795
Memory Partition 1: 
Cache L2_bank_002:
MSHR contents

Cache L2_bank_003:
MSHR contents

In Dram Latency Queue (total = 0): 
DRAM[1]: 16 bks, busW=4 BL=8 CL=12, tRRD=2 tCCD=6, tRCD=12 tRAS=28 tRP=12 tRC=40
n_cmd=29660 n_nop=28855 n_act=12 n_pre=1 n_req=435 n_rd=546 n_write=246 bw_util=0.05341
n_activity=5371 dram_eff=0.2949
bk0: 6a 29606i bk1: 0a 29658i bk2: 0a 29662i bk3: 0a 29664i bk4: 20a 29591i bk5: 20a 29604i bk6: 64a 29445i bk7: 64a 29344i bk8: 64a 29204i bk9: 64a 29176i bk10: 64a 28957i bk11: 64a 28891i bk12: 60a 28969i bk13: 56a 29019i bk14: 0a 29654i bk15: 0a 29654i 
dram_util_bins: 0 0 0 0 0 0 0 0 0 0
dram_eff_bins: 0 0 0 0 0 0 0 0 0 0
mrqq: max=10 avg=0.140054
Memory Partition 2: 
Cache L2_bank_004:
MSHR contents

Cache L2_bank_005:
MSHR contents

In Dram Latency Queue (total = 0): 
DRAM[2]: 16 bks, busW=4 BL=8 CL=12, tRRD=2 tCCD=6, tRCD=12 tRAS=28 tRP=12 tRC=40
n_cmd=29660 n_nop=28855 n_act=11 n_pre=0 n_req=440 n_rd=548 n_write=246 bw_util=0.05354
n_activity=5368 dram_eff=0.2958
bk0: 4a 29636i bk1: 0a 29657i bk2: 0a 29658i bk3: 0a 29660i bk4: 20a 29582i bk5: 24a 29584i bk6: 64a 29456i bk7: 64a 29339i bk8: 64a 29238i bk9: 64a 29173i bk10: 64a 29015i bk11: 64a 28912i bk12: 60a 28984i bk13: 56a 29018i bk14: 0a 29657i bk15: 0a 29657i 
dram_util_bins: 0 0 0 0 0 0 0 0 0 0
dram_eff_bins: 0 0 0 0 0 0 0 0 0 0
mrqq: max=12 avg=0.135536
Memory Partition 3: 
[...]
traffic_breakdown_coretomem[CONST_ACC_R] = 600 {8:75,}
traffic_breakdown_coretomem[GLOBAL_ACC_R] = 1343008 {8:167876,}
traffic_breakdown_coretomem[GLOBAL_ACC_W] = 517200 {40:4279,72:1204,136:1907,}
traffic_breakdown_coretomem[INST_ACC_R] = 4920 {8:615,}
traffic_breakdown_memtocore[CONST_ACC_R] = 5400 {72:75,}
traffic_breakdown_memtocore[GLOBAL_ACC_R] = 22831136 {136:167876,}
traffic_breakdown_memtocore[GLOBAL_ACC_W] = 59120 {8:7390,}
traffic_breakdown_memtocore[INST_ACC_R] = 83640 {136:615,}
maxmrqlatency = 176 
maxdqlatency = 0 
maxmflatency = 805 
averagemflatency = 157 
max_icnt2mem_latency = 356 
max_icnt2sh_latency = 2830207 
mrq_lat_table:7367 	791 	286 	506 	515 	227 	158 	40 	0 	0 	0 	0 	0 	0 	0 	0 	0 	0 	0 	0 	0 	0 	0 	0 	0 	0 	0 	0 	0 	0 	0 	0 	
dq_lat_table:0 	0 	0 	0 	0 	0 	0 	0 	0 	0 	0 	0 	0 	0 	0 	0 	0 	0 	0 	0 	0 	0 	0 	0 	0 	0 	0 	0 	0 	0 	0 	0 	
mf_lat_table:0 	0 	0 	0 	0 	0 	0 	163991 	11082 	268 	0 	0 	0 	0 	0 	0 	0 	0 	0 	0 	0 	0 	0 	0 	0 	0 	0 	0 	0 	0 	0 	0 	
icnt2mem_lat_table:0 	0 	0 	170845 	2544 	987 	940 	601 	39 	0 	0 	0 	0 	0 	0 	0 	0 	0 	0 	0 	0 	0 	0 	0 	
icnt2sh_lat_table:0 	0 	0 	147532 	14807 	5337 	275 	0 	0 	0 	0 	0 	113 	985 	762 	420 	1048 	982 	240 	600 	1200 	1040 	0 	0 	
mf_lat_pw_table:0 	0 	0 	0 	0 	0 	0 	5622 	30 	0 	0 	0 	0 	0 	0 	0 	0 	0 	0 	0 	0 	0 	0 	0 	0 	0 	0 	0 	0 	0 	0 	0 	
maximum concurrent accesses to same row:
dram[0]:        71        70        77        74        33        31        32        32        52        47        67        65        63        62        58        57 
dram[1]:        76        73        78        76        31        29        32        32        50        51        65        64        63        61        56        58 
dram[2]:        75        81        77        78        31        28        32        32        48        56        65        64        63        62        56        54 
dram[3]:        74        76        74        77        34        27        32        32        48        54        65        67        63        61        58        56 
dram[4]:        75        71        75        78        28        29        32        32        50        54        65        65        62        60        58        61 
dram[5]:        73        73        74        72        27        35        32        32        45        52        65        65        62        61        57        58 
maximum service time to same row:
dram[0]:    360611     30382     92260    101141    152420    158541      6131      6249   1302281   1520175      7834      8007    445247     14913       288       294 
dram[1]:    338869     41086     92254    101441    152967    158543      6153      6295    653300    739498      7894      8415    450933     14910       294       288 
dram[2]:    343882     28629     94644    102057    154760    158643      6154      6275    676198    972193      8590      8025    456537     15952      3565       990 
dram[3]:     25494    325363     99687    101625    155941    158836      6257      6293   1409318   1395942      8003      9131     15177    427716       291       288 
dram[4]:     25178    322370    100254    101619    155682    158828      6219      6261   1405932    753398      8075      8757     15243    431871       288       291 
dram[5]:     31381     97114    100594    103300    156172    159016      6293      6294    652026   1084341      7932      8104     15232    439622      2344       307 
average row accesses per activate:
dram[0]: 11.100000 26.500000 54.500000 53.000000  3.720000  3.576923  2.823529  2.742857  3.750000  3.243902 49.500000 48.500000 32.333332 32.000000 45.000000 44.500000 
dram[1]: 13.000000 27.250000 55.000000 54.000000  3.370370  3.333333  2.666667  2.909091  3.342105  3.487180 48.500000 48.000000 32.333332 31.666666 44.000000 45.000000 
dram[2]: 16.285715 29.000000 54.500000 55.000000  3.750000  3.407408  2.742857  2.823529  3.421053  4.928571 48.500000 48.000000 32.333332 31.666666 44.000000 43.000000 
dram[3]: 27.500000 14.000000 53.000000 54.500000  3.760000  3.500000  2.742857  2.742857  3.846154  4.000000 48.500000 49.500000 32.333332 31.333334 45.000000 44.000000 
dram[4]: 27.750000 13.625000 53.500000 55.000000  3.296296  3.407408  2.909091  2.666667  3.942857  4.250000 48.500000 48.500000 32.000000 31.333334 45.000000 46.500000 
dram[5]: 27.250000 15.857142 53.000000 52.000000  3.520000  3.769231  2.909091  2.742857  3.177778  3.657143 48.500000 48.500000 32.000000 31.666666 44.500000 45.000000 
average row locality = 9890/1345 = 7.353160
number of total memory accesses made:
dram[0]:         0         0         0         0         0         0         0         0         0         0         0         0         0         0         0         0 
dram[1]:         0         0         0         0         0         0         0         0         0         0         0         0         0         0         0         0 
dram[2]:         0         0         0         0         0         0         0         0         0         0         0         0         0         0         0         0 
dram[3]:         0         0         0         0         0         0         0         0         0         0         0         0         0         0         0         0 
dram[4]:         0         0         0         0         0         0         0         0         0         0         0         0         0         0         0         0 
dram[5]:         0         0         0         0         0         0         0         0         0         0         0         0         0         0         0         0 
total accesses: 0
min_bank_accesses = 0!
min_chip_accesses = 0!
number of total read accesses:
dram[0]:        71        68        64        64        74        74        96        96        94        93        64        64        64        64        64        64 
dram[1]:        72        68        64        64        74        74        96        96        94        93        64        64        64        64        64        64 
dram[2]:        70        67        64        64        74        76        96        96        94        92        64        64        64        64        64        64 
dram[3]:        68        67        64        64        74        76        96        96        94        92        64        64        64        64        64        64 
dram[4]:        68        68        64        64        74        76        96        96        94        92        64        64        64        64        64        64 
dram[5]:        68        68        64        64        74        76        96        96        94        92        64        64        64        64        64        64 
total reads: 7061
bank skew: 96/64 = 1.50
chip skew: 1179/1175 = 1.00
number of total write accesses:
dram[0]:        40        38        45        42        19        19         0         0        41        40        35        33        33        32        26        25 
dram[1]:        45        41        46        44        17        16         0         0        33        43        33        32        33        31        24        26 
dram[2]:        44        49        45        46        16        16         0         0        36        46        33        32        33        31        24        22 
dram[3]:        42        45        42        45        20        15         0         0        56        36        33        35        33        30        26        24 
dram[4]:        43        41        43        46        15        16         0         0        44        44        33        33        32        30        26        29 
dram[5]:        41        43        42        40        14        22         0         0        49        36        33        33        32        31        25        26 
total reads: 2829
min_bank_accesses = 0!
chip skew: 482/464 = 1.04
average mf latency per bank:
dram[0]:       2182      2255      2264      2289      3296      3344      4779      4868      2602      2745      2124      2146      2121      2115      2972      2931
dram[1]:       2119      2156      2283      2282      3416      3299      4778      4674      2642      2630      2201      2168      2121      2299      2921      2937
dram[2]:       2117      2058      2317      2279      3425      3383      4762      5082      2574      2547      2202      2253      2195      2201      2904      3013
dram[3]:       2184      2134      2314      2254      3138      3567      4656      4922      2382      2667      2239      2110      2108      2243      2971      2896
dram[4]:       2132      2167      2326      2301      3341      3569      5516      4719      3083      2522      2296      2110      2175      2254      2879      2859
dram[5]:       2200      2169      2334      2381      3437      3095      5314      4574      2875      2571      2163      2177      2158      2261      2967      2868
maximum mf latency per bank:
dram[0]:        308       318       277       277       684       697       627       737       415       519       398       491       351       316       487       470
dram[1]:        279       327       328       340       586       454       553       492       589       486       551       388       314       336       379       422
dram[2]:        307       317       321       324       659       521       561       621       546       485       618       430       304       315       470       433
dram[3]:        339       347       287       277       613       661       552       706       407       581       474       400       333       314       448       488
dram[4]:        277       277       345       297       601       805       518       645       518       479       571       369       461       313       489       501
dram[5]:        285       326       290       298       544       555       564       552       530       430       478       395       496       318       440       494

Number of Memory Banks Accessed per Memory Operation per Warp (from 0):
0	0	0	0	0	0	0	0	0	0	0	0	0	0	0	0	0	0	0	0	0	0	0	0	0	0	0	0	0	0	0	0	0	0	0	0	0	0	0	0	0	0	0	0	0	0	0	0	0	0	0	0	0	0	0	0	0	0	0	0	0	0	0	0	0	0	0	0	0	0	0	0	0	0	0	0	0	0	0	0	0	0	0	0	0	0	0	0	0	0	0	0	0	0	0	0	
Average # of Memory Banks Accessed per Memory Operation per Warp=-nan

position of mrq chosen
0	0	0	0	0	0	0	0	0	0	0	0	0	0	0	0	

average position of mrq chosen = -nan
Memory Partition 0: 
Cache L2_bank_000:
MSHR contents

Cache L2_bank_001:
MSHR contents

In Dram Latency Queue (total = 0): 
DRAM[0]: 16 bks, busW=4 BL=8 CL=12, tRRD=2 tCCD=6, tRCD=12 tRAS=28 tRP=12 tRC=40
n_cmd=3735872 n_nop=3732395 n_act=229 n_pre=213 n_req=1646 n_rd=2356 n_write=679 bw_util=0.001625
n_activity=28271 dram_eff=0.2147
bk0: 142a 3734897i bk1: 136a 3735006i bk2: 128a 3735174i bk3: 128a 3735152i bk4: 148a 3734778i bk5: 148a 3734705i bk6: 192a 3734504i bk7: 192a 3734350i bk8: 188a 3734129i bk9: 186a 3733952i bk10: 128a 3734849i bk11: 128a 3734854i bk12: 128a 3734895i bk13: 128a 3734983i bk14: 128a 3735090i bk15: 128a 3735098i 
dram_util_bins: 0 0 0 0 0 0 0 0 0 0
dram_eff_bins: 0 0 0 0 0 0 0 0 0 0
mrqq: max=16 avg=0.00281112
Memory Partition 1: 
Cache L2_bank_002:
MSHR contents

Cache L2_bank_003:
MSHR contents

In Dram Latency Queue (total = 0): 
DRAM[1]: 16 bks, busW=4 BL=8 CL=12, tRRD=2 tCCD=6, tRCD=12 tRAS=28 tRP=12 tRC=40
n_cmd=3735872 n_nop=3732389 n_act=232 n_pre=216 n_req=1643 n_rd=2358 n_write=677 bw_util=0.001625
n_activity=28729 dram_eff=0.2113
bk0: 144a 3734889i bk1: 136a 3734950i bk2: 128a 3735080i bk3: 128a 3735023i bk4: 148a 3734723i bk5: 148a 3734697i bk6: 192a 3734542i bk7: 192a 3734488i bk8: 188a 3734119i bk9: 186a 3733880i bk10: 128a 3734883i bk11: 128a 3734864i bk12: 128a 3734881i bk13: 128a 3734919i bk14: 128a 3735132i bk15: 128a 3735045i 
dram_util_bins: 0 0 0 0 0 0 0 0 0 0
dram_eff_bins: 0 0 0 0 0 0 0 0 0 0
mrqq: max=16 avg=0.00268639
Memory Partition 2: 
Cache L2_bank_004:
MSHR contents

Cache L2_bank_005:
MSHR contents

In Dram Latency Queue (total = 0): 
DRAM[2]: 16 bks, busW=4 BL=8 CL=12, tRRD=2 tCCD=6, tRCD=12 tRAS=28 tRP=12 tRC=40
n_cmd=3735872 n_nop=3732427 n_act=215 n_pre=199 n_req=1650 n_rd=2354 n_write=677 bw_util=0.001623
n_activity=28204 dram_eff=0.2149
bk0: 140a 3734904i bk1: 134a 3734979i bk2: 128a 3735091i bk3: 128a 3735043i bk4: 148a 3734854i bk5: 152a 3734756i bk6: 192a 3734534i bk7: 192a 3734396i bk8: 188a 3734107i bk9: 184a 3734212i bk10: 128a 3734956i bk11: 128a 3734878i bk12: 128a 3734887i bk13: 128a 3734945i bk14: 128a 3735142i bk15: 128a 3735202i 
dram_util_bins: 0 0 0 0 0 0 0 0 0 0
dram_eff_bins: 0 0 0 0 0 0 0 0 0 0
mrqq: max=16 avg=0.00263714
Memory Partition 3: 
Cache L2_bank_006:
MSHR contents

Cache L2_bank_007:
MSHR contents

In Dram Latency Queue (total = 0): 
DRAM[3]: 16 bks, busW=4 BL=8 CL=12, tRRD=2 tCCD=6, tRCD=12 tRAS=28 tRP=12 tRC=40
n_cmd=3735872 n_nop=3732406 n_act=222 n_pre=206 n_req=1657 n_rd=2350 n_write=688 bw_util=0.001626
n_activity=28214 dram_eff=0.2154
bk0: 136a 3734930i bk1: 134a 3734831i bk2: 128a 3735126i bk3: 128a 3735164i bk4: 148a 3734754i bk5: 152a 3734770i bk6: 192a 3734500i bk7: 192a 3734373i bk8: 188a 3733865i bk9: 184a 3734149i bk10: 128a 3734868i bk11: 128a 3734957i bk12: 128a 3734969i bk13: 128a 3734928i bk14: 128a 3735132i bk15: 128a 3735108i 
dram_util_bins: 0 0 0 0 0 0 0 0 0 0
dram_eff_bins: 0 0 0 0 0 0 0 0 0 0
mrqq: max=16 avg=0.00319604
Memory Partition 4: 
Cache L2_bank_008:
MSHR contents

Cache L2_bank_009:
MSHR contents

In Dram Latency Queue (total = 0): 
DRAM[4]: 16 bks, busW=4 BL=8 CL=12, tRRD=2 tCCD=6, tRCD=12 tRAS=28 tRP=12 tRC=40
n_cmd=3735872 n_nop=3732411 n_act=220 n_pre=204 n_req=1651 n_rd=2352 n_write=685 bw_util=0.001626
n_activity=28461 dram_eff=0.2134
bk0: 136a 3735061i bk1: 136a 3734993i bk2: 128a 3735056i bk3: 128a 3735134i bk4: 148a 3734754i bk5: 152a 3734710i bk6: 192a 3734604i bk7: 192a 3734439i bk8: 188a 3734041i bk9: 184a 3734081i bk10: 128a 3734860i bk11: 128a 3734979i bk12: 128a 3734991i bk13: 128a 3734982i bk14: 128a 3735106i bk15: 128a 3735003i 
dram_util_bins: 0 0 0 0 0 0 0 0 0 0
dram_eff_bins: 0 0 0 0 0 0 0 0 0 0
mrqq: max=16 avg=0.00275679
Memory Partition 5: 
Cache L2_bank_010:
MSHR contents

Cache L2_bank_011:
MSHR contents

In Dram Latency Queue (total = 0): 
DRAM[5]: 16 bks, busW=4 BL=8 CL=12, tRRD=2 tCCD=6, tRCD=12 tRAS=28 tRP=12 tRC=40
n_cmd=3735872 n_nop=3732405 n_act=228 n_pre=212 n_req=1643 n_rd=2352 n_write=675 bw_util=0.001621
n_activity=28211 dram_eff=0.2146
bk0: 136a 3735069i bk1: 136a 3734953i bk2: 128a 3735117i bk3: 128a 3735159i bk4: 148a 3734868i bk5: 152a 3734747i bk6: 192a 3734537i bk7: 192a 3734371i bk8: 188a 3733858i bk9: 184a 3734055i bk10: 128a 3734860i bk11: 128a 3734955i bk12: 128a 3734870i bk13: 128a 3734968i bk14: 128a 3735149i bk15: 128a 3735094i 
dram_util_bins: 0 0 0 0 0 0 0 0 0 0
dram_eff_bins: 0 0 0 0 0 0 0 0 0 0
mrqq: max=16 avg=0.00294496

========= L2 cache stats =========
L2_cache_bank[0]: Access = 14656, Miss = 591, Miss_rate = 0.040, Pending_hits = 190, Reservation_fails = 691
L2_cache_bank[1]: Access = 14633, Miss = 587, Miss_rate = 0.040, Pending_hits = 160, Reservation_fails = 707
L2_cache_bank[2]: Access = 14548, Miss = 592, Miss_rate = 0.041, Pending_hits = 184, Reservation_fails = 699
L2_cache_bank[3]: Access = 14664, Miss = 587, Miss_rate = 0.040, Pending_hits = 182, Reservation_fails = 323
L2_cache_bank[4]: Access = 14497, Miss = 590, Miss_rate = 0.041, Pending_hits = 181, Reservation_fails = 222
L2_cache_bank[5]: Access = 14730, Miss = 587, Miss_rate = 0.040, Pending_hits = 192, Reservation_fails = 512
L2_cache_bank[6]: Access = 14622, Miss = 588, Miss_rate = 0.040, Pending_hits = 190, Reservation_fails = 492
L2_cache_bank[7]: Access = 14637, Miss = 587, Miss_rate = 0.040, Pending_hits = 178, Reservation_fails = 364
L2_cache_bank[8]: Access = 14912, Miss = 588, Miss_rate = 0.039, Pending_hits = 182, Reservation_fails = 639
L2_cache_bank[9]: Access = 14662, Miss = 588, Miss_rate = 0.040, Pending_hits = 176, Reservation_fails = 452
L2_cache_bank[10]: Access = 14897, Miss = 588, Miss_rate = 0.039, Pending_hits = 186, Reservation_fails = 637
L2_cache_bank[11]: Access = 14498, Miss = 588, Miss_rate = 0.041, Pending_hits = 175, Reservation_fails = 353
L2_total_cache_accesses = 175956
L2_total_cache_misses = 7061
L2_total_cache_miss_rate = 0.0401
L2_total_cache_pending_hits = 2176
L2_total_cache_reservation_fails = 6091
L2_total_cache_breakdown:
	L2_cache_stats_breakdown[GLOBAL_ACC_R][HIT] = 161540
	L2_cache_stats_breakdown[GLOBAL_ACC_R][HIT_RESERVED] = 1398
	L2_cache_stats_breakdown[GLOBAL_ACC_R][MISS] = 4938
	L2_cache_stats_breakdown[GLOBAL_ACC_R][RESERVATION_FAIL] = 1828
	L2_cache_stats_breakdown[CONST_ACC_R][HIT] = 63
	L2_cache_stats_breakdown[CONST_ACC_R][HIT_RESERVED] = 9
	L2_cache_stats_breakdown[CONST_ACC_R][MISS] = 3
	L2_cache_stats_breakdown[CONST_ACC_R][RESERVATION_FAIL] = 313
	L2_cache_stats_breakdown[GLOBAL_ACC_W][HIT] = 4650
	L2_cache_stats_breakdown[GLOBAL_ACC_W][HIT_RESERVED] = 661
	L2_cache_stats_breakdown[GLOBAL_ACC_W][MISS] = 2079
	L2_cache_stats_breakdown[GLOBAL_ACC_W][RESERVATION_FAIL] = 858
	L2_cache_stats_breakdown[INST_ACC_R][HIT] = 466
	L2_cache_stats_breakdown[INST_ACC_R][HIT_RESERVED] = 108
	L2_cache_stats_breakdown[INST_ACC_R][MISS] = 41
	L2_cache_stats_breakdown[INST_ACC_R][RESERVATION_FAIL] = 3092
L2_cache_data_port_util = 0.019
L2_cache_fill_port_util = 0.001

icnt_total_pkts_mem_to_simt=850070
icnt_total_pkts_simt_to_mem=190271
LD_mem_lat_dist  0 0 0 0 0 0 0 0 0 0 0 0 0 0 0 0 0 0 0 0 0 0 0 0 0 0 0
ST_mem_lat_dist  0 0 0 0 0 0 0 0 0 0 0 0 0 0 0 0 0 0 0 0 0 0 0 0 0 0 0
----------------------------Interconnect-DETAILS--------------------------------
Class 0:
Packet latency average = 11.866
	minimum = 6
	maximum = 246
Network latency average = 10.6907
	minimum = 6
	maximum = 177
Slowest packet = 350123
Flit latency average = 8.60294
	minimum = 6
	maximum = 176
Slowest flit = 1035725
Fragmentation average = 0
	minimum = 0
	maximum = 0
Injected packet rate average = 0.0039917
	minimum = 0.00305701 (at node 5)
	maximum = 0.00650428 (at node 16)
Accepted packet rate average = 0.0039917
	minimum = 0.00305701 (at node 5)
	maximum = 0.00650428 (at node 16)
Injected flit rate average = 0.0109633
	minimum = 0.00357735 (at node 5)
	maximum = 0.0241959 (at node 16)
Accepted flit rate average= 0.0109633
	minimum = 0.00305701 (at node 19)
	maximum = 0.0171062 (at node 10)
Injected packet length average = 2.74653
Accepted packet length average = 2.74653
Total in-flight flits = 0 (0 measured)
====== Overall Traffic Statistics ======
====== Traffic class 0 ======
Packet latency average = 12.2963 (4 samples)
	minimum = 6 (4 samples)
	maximum = 130.5 (4 samples)
Network latency average = 10.9569 (4 samples)
	minimum = 6 (4 samples)
	maximum = 106 (4 samples)
Flit latency average = 9.30272 (4 samples)
	minimum = 6 (4 samples)
	maximum = 103.75 (4 samples)
Fragmentation average = 0.00119398 (4 samples)
	minimum = 0 (4 samples)
	maximum = 19.5 (4 samples)
Injected packet rate average = 0.0176408 (4 samples)
	minimum = 0.0126837 (4 samples)
	maximum = 0.0230372 (4 samples)
Accepted packet rate average = 0.0176408 (4 samples)
	minimum = 0.0126837 (4 samples)
	maximum = 0.0230372 (4 samples)
Injected flit rate average = 0.0513846 (4 samples)
	minimum = 0.0177632 (4 samples)
	maximum = 0.1048 (4 samples)
Accepted flit rate average = 0.0513846 (4 samples)
	minimum = 0.0229648 (4 samples)
	maximum = 0.0903347 (4 samples)
Injected packet size average = 2.91283 (4 samples)
Accepted packet size average = 2.91283 (4 samples)
Hops average = 1 (4 samples)
----------------------------END-of-Interconnect-DETAILS-------------------------


gpgpu_simulation_time = 0 days, 1 hrs, 37 min, 25 sec (5845 sec)
gpgpu_simulation_rate = 17431 (inst/sec)
gpgpu_simulation_rate = 484 (cycle/sec)
7 2 1 0 4 1 4 9 6 9 0 6 9 0 1 5 9 7 3 4 9 6 6 5 4 0 7 4
